
OS:Version,
  {84172f2b-b2e6-4cc0-b0cd-2125e3295452}, !- Handle
  3.1.0;                                  !- Version Identifier
