
Version,
  9.4;                                    !- Version Identifier

Timestep,
  60;                                     !- Number of Timesteps per Hour

Building,
  None,                                   !- Name
  0,                                      !- North Axis {deg}
  Suburbs,                                !- Terrain
  0.04,                                   !- Loads Convergence Tolerance Value {W}
  0.40,                                   !- Temperature Convergence Tolerance Value {deltaC}
  FullInteriorAndExterior,                !- Solar Distribution
  25,                                     !- Maximum Number of Warmup Days
  6;                                      !- Minimum Number of Warmup Days

GlobalGeometryRules,
  UpperLeftCorner,                        !- Starting Vertex Position
  CounterClockWise,                       !- Vertex Entry Direction
  World;                                  !- Coordinate System

Site:Location,
  NREL Golden CO USA WMO-724666,          !- Name
  39.74,                                  !- Latitude {deg}
  -105.18,                                !- Longitude {deg}
  -7,                                     !- Time Zone {hr}
  1829;                                   !- Elevation {m}

RunPeriod,
  NREL Golden CO USA WMO-724666,          !- Name
  7,                                      !- Begin Month
  1,                                      !- Begin Day of Month
  ,                                       !- Begin Year
  7,                                      !- End Month
  1,                                      !- End Day of Month
  ,                                       !- End Year
  Tuesday,                                !- Day of Week for Start Day
  No,                                     !- Use Weather File Holidays and Special Days
  No,                                     !- Use Weather File Daylight Saving Period
  No,                                     !- Apply Weekend Holiday Rule
  No,                                     !- Use Weather File Rain Indicators
  No;                                     !- Use Weather File Snow Indicators

SimulationControl,
  No,                                     !- Do Zone Sizing Calculation
  No,                                     !- Do System Sizing Calculation
  No,                                     !- Do Plant Sizing Calculation
  No,                                     !- Run Simulation for Sizing Periods
  Yes,                                    !- Run Simulation for Weather File Run Periods
  No,                                     !- Do HVAC Sizing Simulation for Sizing Periods
  1;                                      !- Maximum Number of HVAC Sizing Simulation Passes

ScheduleTypeLimits,
  Any Number;                             !- Name

ScheduleTypeLimits,
  Temperature;                            !- Name

Schedule:Constant,
  Always 0,                               !- Name
  Any Number,                             !- Schedule Type Limits Name
  0;                                      !- Hourly Value

Schedule:Constant,
  Always 1,                               !- Name
  Any Number,                             !- Schedule Type Limits Name
  1;                                      !- Hourly Value

Schedule:Constant,
  Always 4,                               !- Name
  Any Number,                             !- Schedule Type Limits Name
  4;                                      !- Hourly Value

Schedule:Constant,
  Htg Setpt Sch,                          !- Name
  Temperature,                            !- Schedule Type Limits Name
  10;                                     !- Hourly Value

Schedule:Constant,
  Clg Setpt Sch,                          !- Name
  Temperature,                            !- Schedule Type Limits Name
  40;                                     !- Hourly Value

Construction,
  IEAD,                                   !- Name
  Roof Membrane,                          !- Layer 1
  Roof Insulation,                        !- Layer 2
  Roof Decking;                           !- Layer 3

Material,
  Roof Membrane,                          !- Name
  VeryRough,                              !- Roughness
  0.0095,                                 !- Thickness {m}
  0.16,                                   !- Conductivity {W/m-K}
  1121.29,                                !- Density {kg/m3}
  1460,                                   !- Specific Heat {J/kg-K}
  0.9,                                    !- Thermal Absorptance
  0.7,                                    !- Solar Absorptance
  0.7;                                    !- Visible Absorptance

Material:NoMass,
  Roof Insulation,                        !- Name
  MediumRough,                            !- Roughness
  3.5222,                                 !- Thermal Resistance {m2-K/W}
  0.9,                                    !- Thermal Absorptance
  0.7,                                    !- Solar Absorptance
  0.7;                                    !- Visible Absorptance

Material,
  Roof Decking,                           !- Name
  MediumSmooth,                           !- Roughness
  0.0015,                                 !- Thickness {m}
  45.006,                                 !- Conductivity {W/m-K}
  7680,                                   !- Density {kg/m3}
  418.4,                                  !- Specific Heat {J/kg-K}
  0.9,                                    !- Thermal Absorptance
  0.7,                                    !- Solar Absorptance
  0.3;                                    !- Visible Absorptance

Construction,
  Ext Wall,                               !- Name
  4in MW Concrete,                        !- Layer 1
  Wall Insulation,                        !- Layer 2
  0.5in Gypsum;                           !- Layer 3

Material,
  4in MW Concrete,                        !- Name
  Rough,                                  !- Roughness
  0.1000,                                 !- Thickness {m}
  0.858,                                  !- Conductivity {W/m-K}
  1968,                                   !- Density {kg/m3}
  836.8,                                  !- Specific Heat {J/kg-K}
  0.9,                                    !- Thermal Absorptance
  0.7,                                    !- Solar Absorptance
  0.7;                                    !- Visible Absorptance

Material:NoMass,
  Wall Insulation,                        !- Name
  MediumRough,                            !- Roughness
  1.673,                                  !- Thermal Resistance {m2-K/W}
  0.9000,                                 !- Thermal Absorptance
  0.7000,                                 !- Solar Absorptance
  0.7000;                                 !- Visible Absorptance

Material,
  0.5in Gypsum,                           !- Name
  Smooth,                                 !- Roughness
  0.0127,                                 !- Thickness {m}
  0.16,                                   !- Conductivity {W/m-K}
  800,                                    !- Density {kg/m3}
  1090,                                   !- Specific Heat {J/kg-K}
  0.9,                                    !- Thermal Absorptance
  0.7,                                    !- Solar Absorptance
  0.5;                                    !- Visible Absorptance

Construction,
  Slab,                                   !- Name
  Ground Insulation,                      !- Layer 1
  8in HW Concrete;                        !- Layer 2

Material,
  Ground Insulation,                      !- Name
  Smooth,                                 !- Roughness
  0.0254,                                 !- Thickness {m}
  0.03,                                   !- Conductivity {W/m-K}
  55,                                     !- Density {kg/m3}
  1213,                                   !- Specific Heat {J/kg-K}
  0.9,                                    !- Thermal Absorptance
  0.5,                                    !- Solar Absorptance
  0.5;                                    !- Visible Absorptance

Material,
  8in HW Concrete,                        !- Name
  Rough,                                  !- Roughness
  0.20321,                                !- Thickness {m}
  1.311,                                  !- Conductivity {W/m-K}
  2240,                                   !- Density {kg/m3}
  836.8,                                  !- Specific Heat {J/kg-K}
  0.9,                                    !- Thermal Absorptance
  0.7,                                    !- Solar Absorptance
  0.7;                                    !- Visible Absorptance

Site:GroundTemperature:BuildingSurface,
  20,                                     !- January Ground Temperature {C}
  20,                                     !- February Ground Temperature {C}
  20,                                     !- March Ground Temperature {C}
  20,                                     !- April Ground Temperature {C}
  20,                                     !- May Ground Temperature {C}
  20,                                     !- June Ground Temperature {C}
  20,                                     !- July Ground Temperature {C}
  20,                                     !- August Ground Temperature {C}
  20,                                     !- September Ground Temperature {C}
  20,                                     !- October Ground Temperature {C}
  20,                                     !- November Ground Temperature {C}
  20;                                     !- December Ground Temperature {C}

Zone,
  Zn1,                                    !- Name
  0,                                      !- Direction of Relative North {deg}
  0,                                      !- X Origin {m}
  0,                                      !- Y Origin {m}
  0,                                      !- Z Origin {m}
  1,                                      !- Type
  1,                                      !- Multiplier
  AutoCalculate,                          !- Ceiling Height {m}
  AutoCalculate,                          !- Volume {m3}
  AutoCalculate,                          !- Floor Area {m2}
  TARP,                                   !- Zone Inside Convection Algorithm
  DOE-2,                                  !- Zone Outside Convection Algorithm
  Yes;                                    !- Part of Total Floor Area

BuildingSurface:Detailed,
  Floor,                                  !- Name
  Floor,                                  !- Surface Type
  Slab,                                   !- Construction Name
  Zn1,                                    !- Zone Name
  Ground,                                 !- Outside Boundary Condition
  ,                                       !- Outside Boundary Condition Object
  NoSun,                                  !- Sun Exposure
  NoWind,                                 !- Wind Exposure
  AutoCalculate,                          !- View Factor to Ground
  4,                                      !- Number of Vertices
  3.048, 3.048, 0,                        !- X,Y,Z Vertex 1 {m}
  3.048, 0, 0,                            !- X,Y,Z Vertex 2 {m}
  0, 0, 0,                                !- X,Y,Z Vertex 3 {m}
  0, 3.048, 0;                            !- X,Y,Z Vertex 4 {m}

BuildingSurface:Detailed,
  Roof,                                   !- Name
  Roof,                                   !- Surface Type
  IEAD,                                   !- Construction Name
  Zn1,                                    !- Zone Name
  Outdoors,                               !- Outside Boundary Condition
  ,                                       !- Outside Boundary Condition Object
  SunExposed,                             !- Sun Exposure
  WindExposed,                            !- Wind Exposure
  AutoCalculate,                          !- View Factor to Ground
  4,                                      !- Number of Vertices
  0, 3.048, 3.048,                        !- X,Y,Z Vertex 1 {m}
  0, 0, 3.048,                            !- X,Y,Z Vertex 2 {m}
  3.048, 0, 3.048,                        !- X,Y,Z Vertex 3 {m}
  3.048, 3.048, 3.048;                    !- X,Y,Z Vertex 4 {m}

BuildingSurface:Detailed,
  North,                                  !- Name
  Wall,                                   !- Surface Type
  Ext Wall,                               !- Construction Name
  Zn1,                                    !- Zone Name
  Outdoors,                               !- Outside Boundary Condition
  ,                                       !- Outside Boundary Condition Object
  SunExposed,                             !- Sun Exposure
  WindExposed,                            !- Wind Exposure
  AutoCalculate,                          !- View Factor to Ground
  4,                                      !- Number of Vertices
  3.048, 3.048, 3.048,                    !- X,Y,Z Vertex 1 {m}
  3.048, 3.048, 0,                        !- X,Y,Z Vertex 2 {m}
  0, 3.048, 0,                            !- X,Y,Z Vertex 3 {m}
  0, 3.048, 3.048;                        !- X,Y,Z Vertex 4 {m}

BuildingSurface:Detailed,
  East,                                   !- Name
  Wall,                                   !- Surface Type
  Ext Wall,                               !- Construction Name
  Zn1,                                    !- Zone Name
  Outdoors,                               !- Outside Boundary Condition
  ,                                       !- Outside Boundary Condition Object
  SunExposed,                             !- Sun Exposure
  WindExposed,                            !- Wind Exposure
  AutoCalculate,                          !- View Factor to Ground
  4,                                      !- Number of Vertices
  3.048, 0, 3.048,                        !- X,Y,Z Vertex 1 {m}
  3.048, 0, 0,                            !- X,Y,Z Vertex 2 {m}
  3.048, 3.048, 0,                        !- X,Y,Z Vertex 3 {m}
  3.048, 3.048, 3.048;                    !- X,Y,Z Vertex 4 {m}

BuildingSurface:Detailed,
  South,                                  !- Name
  Wall,                                   !- Surface Type
  Ext Wall,                               !- Construction Name
  Zn1,                                    !- Zone Name
  Outdoors,                               !- Outside Boundary Condition
  ,                                       !- Outside Boundary Condition Object
  SunExposed,                             !- Sun Exposure
  WindExposed,                            !- Wind Exposure
  AutoCalculate,                          !- View Factor to Ground
  4,                                      !- Number of Vertices
  0, 0, 3.048,                            !- X,Y,Z Vertex 1 {m}
  0, 0, 0,                                !- X,Y,Z Vertex 2 {m}
  3.048, 0, 0,                            !- X,Y,Z Vertex 3 {m}
  3.048, 0, 3.048;                        !- X,Y,Z Vertex 4 {m}

BuildingSurface:Detailed,
  West,                                   !- Name
  Wall,                                   !- Surface Type
  Ext Wall,                               !- Construction Name
  Zn1,                                    !- Zone Name
  Outdoors,                               !- Outside Boundary Condition
  ,                                       !- Outside Boundary Condition Object
  SunExposed,                             !- Sun Exposure
  WindExposed,                            !- Wind Exposure
  AutoCalculate,                          !- View Factor to Ground
  4,                                      !- Number of Vertices
  0, 3.048, 3.048,                        !- X,Y,Z Vertex 1 {m}
  0, 3.048, 0,                            !- X,Y,Z Vertex 2 {m}
  0, 0, 0,                                !- X,Y,Z Vertex 3 {m}
  0, 0, 3.048;                            !- X,Y,Z Vertex 4 {m}

ZoneHVAC:EquipmentConnections,
  Zn1,                                    !- Zone Name
  Zn1 Equip List,                         !- Zone Conditioning Equipment List Name
  Zn1 Supply Node,                        !- Zone Air Inlet Node or NodeList Name
  ,                                       !- Zone Air Exhaust Node or NodeList Name
  Zn1 Air Node,                           !- Zone Air Node Name
  Zn1 Return Node;                        !- Zone Return Air Node or NodeList Name

ZoneHVAC:EquipmentList,
  Zn1 Equip List,                         !- Name
  SequentialLoad,                         !- Load Distribution Scheme
  ZoneHVAC:IdealLoadsAirSystem,           !- Zone Equipment Object Type 1
  Zn1 Ideal Loads Air Sys,                !- Zone Equipment Name 1
  1,                                      !- Zone Equipment Cooling Sequence 1
  1,                                      !- Zone Equipment Heating or No-Load Sequence 1
  ,                                       !- Zone Equipment Sequential Cooling Fraction Schedule Name 1
  ;                                       !- Zone Equipment Sequential Heating Fraction Schedule Name 1

ZoneHVAC:IdealLoadsAirSystem,
  Zn1 Ideal Loads Air Sys,                !- Name
  Always 1,                               !- Availability Schedule Name
  Zn1 Supply Node,                        !- Zone Supply Air Node Name
  ,                                       !- Zone Exhaust Air Node Name
  ,                                       !- System Inlet Air Node Name
  50,                                     !- Maximum Heating Supply Air Temperature {C}
  13,                                     !- Minimum Cooling Supply Air Temperature {C}
  0.015,                                  !- Maximum Heating Supply Air Humidity Ratio {kgWater/kgDryAir}
  0.01,                                   !- Minimum Cooling Supply Air Humidity Ratio {kgWater/kgDryAir}
  NoLimit,                                !- Heating Limit
  ,                                       !- Maximum Heating Air Flow Rate {m3/s}
  ,                                       !- Maximum Sensible Heating Capacity {W}
  NoLimit,                                !- Cooling Limit
  ,                                       !- Maximum Cooling Air Flow Rate {m3/s}
  ,                                       !- Maximum Total Cooling Capacity {W}
  ,                                       !- Heating Availability Schedule Name
  ,                                       !- Cooling Availability Schedule Name
  None,                                   !- Dehumidification Control Type
  ,                                       !- Cooling Sensible Heat Ratio {dimensionless}
  None,                                   !- Humidification Control Type
  ,                                       !- Design Specification Outdoor Air Object Name
  ,                                       !- Outdoor Air Inlet Node Name
  ,                                       !- Demand Controlled Ventilation Type
  ,                                       !- Outdoor Air Economizer Type
  ,                                       !- Heat Recovery Type
  ,                                       !- Sensible Heat Recovery Effectiveness {dimensionless}
  ,                                       !- Latent Heat Recovery Effectiveness {dimensionless}
  ;                                       !- Design Specification ZoneHVAC Sizing Object Name

ZoneControl:Thermostat,
  Zn1 Thermostat,                         !- Name
  Zn1,                                    !- Zone or ZoneList Name
  Always 4,                               !- Control Type Schedule Name
  ThermostatSetpoint:DualSetpoint,        !- Control 1 Object Type
  Zn1 Stat Ctrl;                          !- Control 1 Name

ThermostatSetpoint:DualSetpoint,
  Zn1 Stat Ctrl,                          !- Name
  Htg Setpt Sch,                          !- Heating Setpoint Temperature Schedule Name
  Clg Setpt Sch;                          !- Cooling Setpoint Temperature Schedule Name

Refrigeration:Case,
  Case,                                   !- Name
  Case Avail Sch,                         !- Availability Schedule Name
  Zn1,                                    !- Zone Name
  23.88,                                  !- Rated Ambient Temperature {C}
  55,                                     !- Rated Ambient Relative Humidity {percent}
  734,                                    !- Rated Total Cooling Capacity per Unit Length {W/m}
  0.08,                                   !- Rated Latent Heat Ratio
  0.85,                                   !- Rated Runtime Fraction
  3.66,                                   !- Case Length {m}
  2,                                      !- Case Operating Temperature {C}
  CaseTemperatureMethod,                  !- Latent Case Credit Curve Type
  Case Curve,                             !- Latent Case Credit Curve Name
  55,                                     !- Standard Case Fan Power per Unit Length {W/m}
  55,                                     !- Operating Case Fan Power per Unit Length {W/m}
  33,                                     !- Standard Case Lighting Power per Unit Length {W/m}
  ,                                       !- Installed Case Lighting Power per Unit Length {W/m}
  Always 1,                               !- Case Lighting Schedule Name
  1,                                      !- Fraction of Lighting Energy to Case
  0,                                      !- Case Anti-Sweat Heater Power per Unit Length {W/m}
  0,                                      !- Minimum Anti-Sweat Heater Power per Unit Length {W/m}
  None,                                   !- Anti-Sweat Heater Control Type
  0,                                      !- Humidity at Zero Anti-Sweat Heater Energy {percent}
  0,                                      !- Case Height {m}
  0.2,                                    !- Fraction of Anti-Sweat Heater Energy to Case
  0,                                      !- Case Defrost Power per Unit Length {W/m}
  None,                                   !- Case Defrost Type
  ,                                       !- Case Defrost Schedule Name
  ,                                       !- Case Defrost Drip-Down Schedule Name
  None,                                   !- Defrost Energy Correction Curve Type
  ,                                       !- Defrost Energy Correction Curve Name
  0,                                      !- Under Case HVAC Return Air Fraction
  Case Restock Sch,                       !- Refrigerated Case Restocking Schedule Name
  Always 0;                               !- Case Credit Fraction Schedule Name

Schedule:Compact,
  Case Avail Sch,                         !- Name
  Any Number,                             !- Schedule Type Limits Name
  Through: 12/31,                         !- Field 1
  For: AllDays,                           !- Field 2
  Until: 02:00,                           !- Field 3
  1,                                      !- Field 4
  Until: 03:00,                           !- Field 5
  0,                                      !- Field 6
  Until: 05:00,                           !- Field 7
  1,                                      !- Field 8
  Until: 06:00,                           !- Field 9
  0,                                      !- Field 10
  Until: 08:00,                           !- Field 11
  1,                                      !- Field 12
  Until: 09:00,                           !- Field 13
  0,                                      !- Field 14
  Until: 11:00,                           !- Field 15
  1,                                      !- Field 16
  Until: 12:00,                           !- Field 17
  0,                                      !- Field 18
  Until: 14:00,                           !- Field 19
  1,                                      !- Field 20
  Until: 15:00,                           !- Field 21
  0,                                      !- Field 22
  Until: 17:00,                           !- Field 23
  0,                                      !- Field 24
  Until: 18:00,                           !- Field 25
  0,                                      !- Field 26
  Until: 20:00,                           !- Field 27
  1,                                      !- Field 28
  Until: 21:00,                           !- Field 29
  0,                                      !- Field 30
  Until: 23:00,                           !- Field 31
  1,                                      !- Field 32
  Until: 24:00,                           !- Field 33
  0;                                      !- Field 34

Curve:Cubic,
  Case Curve,                             !- Name
  0.026526281,                            !- Coefficient1 Constant
  0.001078032,                            !- Coefficient2 x
  -0.0000602558,                          !- Coefficient3 x**2
  0.00000123732,                          !- Coefficient4 x**3
  -35,                                    !- Minimum Value of x {BasedOnField A2}
  20;                                     !- Maximum Value of x {BasedOnField A2}

Refrigeration:CompressorRack,
  Rack,                                   !- Name
  Outdoors,                               !- Heat Rejection Location
  3,                                      !- Design Compressor Rack COP {W/W}
  Rack COP Curve,                         !- Compressor Rack COP Function of Temperature Curve Name
  350,                                    !- Design Condenser Fan Power {W}
  ,                                       !- Condenser Fan Power Function of Temperature Curve Name
  AirCooled,                              !- Condenser Type
  ,                                       !- Water-Cooled Condenser Inlet Node Name
  ,                                       !- Water-Cooled Condenser Outlet Node Name
  ,                                       !- Water-Cooled Loop Flow Type
  ,                                       !- Water-Cooled Condenser Outlet Temperature Schedule Name
  ,                                       !- Water-Cooled Condenser Design Flow Rate {m3/s}
  ,                                       !- Water-Cooled Condenser Maximum Flow Rate {m3/s}
  ,                                       !- Water-Cooled Condenser Maximum Water Outlet Temperature {C}
  ,                                       !- Water-Cooled Condenser Minimum Water Inlet Temperature {C}
  ,                                       !- Evaporative Condenser Availability Schedule Name
  ,                                       !- Evaporative Condenser Effectiveness {dimensionless}
  ,                                       !- Evaporative Condenser Air Flow Rate {m3/s}
  ,                                       !- Basin Heater Capacity {W/K}
  ,                                       !- Basin Heater Setpoint Temperature {C}
  ,                                       !- Design Evaporative Condenser Water Pump Power {W}
  ,                                       !- Evaporative Water Supply Tank Name
  Rack Cond Node,                         !- Condenser Air Inlet Node Name
  ,                                       !- End-Use Subcategory
  Case;                                   !- Refrigeration Case Name or WalkIn Name or CaseAndWalkInList Name

OutdoorAir:Node,
  Rack Cond Node;                         !- Name

Curve:Quadratic,
  Rack COP Curve,                         !- Name
  1,                                      !- Coefficient1 Constant
  0,                                      !- Coefficient2 x
  0,                                      !- Coefficient3 x**2
  0,                                      !- Minimum Value of x {BasedOnField A2}
  50;                                     !- Maximum Value of x {BasedOnField A2}

Schedule:Compact,
  Case Restock Sch,                       !- Name
  Any Number,                             !- Schedule Type Limits Name
  Through: 12/31,                         !- Field 1
  For:AllDays,                            !- Field 2
  Until: 06:00,                           !- Field 3
  0,                                      !- Field 4
  Until: 07:00,                           !- Field 5
  50,                                     !- Field 6
  Until: 09:00,                           !- Field 7
  70,                                     !- Field 8
  Until: 10:00,                           !- Field 9
  80,                                     !- Field 10
  Until: 11:00,                           !- Field 11
  70,                                     !- Field 12
  Until: 13:00,                           !- Field 13
  50,                                     !- Field 14
  Until: 14:00,                           !- Field 15
  80,                                     !- Field 16
  Until: 15:00,                           !- Field 17
  90,                                     !- Field 18
  Until: 16:00,                           !- Field 19
  80,                                     !- Field 20
  Until: 24:00,                           !- Field 21
  0;                                      !- Field 22

PythonPlugin:SearchPaths,
  Python Search Paths,                    !- Name
  Yes,                                    !- Add Current Working Directory to Search Path
  Yes,                                    !- Add Input File Directory to Search Path
  ,                                       !- Search Path 1
  ,                                       !- Search Path 2
  ,                                       !- Search Path 3
  ,                                       !- Search Path 4
  ;                                       !- Search Path 5

PythonPlugin:Instance,
  Case Model,                             !- Name
  No,                                     !- Run During Warmup Days
  refcase,                                !- Python Module Name
  CaseModel;                              !- Plugin Class Name

PythonPlugin:Variables,
  Python Variables,                       !- Name
  t_food,                                 !- Variable Name 1
  t_case;                                 !- Variable Name 2

PythonPlugin:OutputVariable,