
OS:Version,
  {69677860-c621-40c9-ab46-ede25092f529}, !- Handle
  3.1.0;                                  !- Version Identifier

OS:Facility,
  {57480958-eed6-470d-b9e8-3c835f27d014}; !- Handle

OS:Site,
  {bd8dc481-6864-45e0-aef0-f0a9ee12d86b}, !- Handle
  Long Beach Daugherty Fld_CA_USA,        !- Name
  33.7117427675104,                       !- Latitude {deg}
  -117.994910133849,                      !- Longitude {deg}
  -8,                                     !- Time Zone {hr}
  8,                                      !- Elevation {m}
  City;                                   !- Terrain

OS:SimulationControl,
  {398cf645-7d10-4690-a1ce-cdc2b08abd1e}, !- Handle
  ,                                       !- Do Zone Sizing Calculation
  ,                                       !- Do System Sizing Calculation
  ,                                       !- Do Plant Sizing Calculation
  No,                                     !- Run Simulation for Sizing Periods
  Yes,                                    !- Run Simulation for Weather File Run Periods
  ,                                       !- Loads Convergence Tolerance Value {W}
  ,                                       !- Temperature Convergence Tolerance Value {deltaC}
  ,                                       !- Solar Distribution
  ,                                       !- Maximum Number of Warmup Days
  ,                                       !- Minimum Number of Warmup Days
  Yes,                                    !- Do HVAC Sizing Simulation for Sizing Periods
  1;                                      !- Maximum Number of HVAC Sizing Simulation Passes

OS:Sizing:Parameters,
  {e93f20d0-7102-4d73-a181-b62adacec594}, !- Handle
  1.25,                                   !- Heating Sizing Factor
  1.15;                                   !- Cooling Sizing Factor

OS:Timestep,
  {ef04dfcc-cc10-44e0-befb-c34748e51438}, !- Handle
  1;                                      !- Number of Timesteps per Hour

OS:ShadowCalculation,
  {ab9d37b0-bc3f-4feb-a7f1-558fefcd9bff}, !- Handle
  PolygonClipping,                        !- Shading Calculation Method
  ,                                       !- Shading Calculation Update Frequency Method
  20,                                     !- Shading Calculation Update Frequency
  15000,                                  !- Maximum Figures in Shadow Overlap Calculations
  ,                                       !- Polygon Clipping Algorithm
  512,                                    !- Pixel Counting Resolution
  ,                                       !- Sky Diffuse Modeling Algorithm
  No,                                     !- Output External Shading Calculation Results
  No,                                     !- Disable Self-Shading Within Shading Zone Groups
  No;                                     !- Disable Self-Shading From Shading Zone Groups to Other Zones

OS:HeatBalanceAlgorithm,
  {bf85975a-7689-4da2-a1ba-258588be7988}, !- Handle
  ConductionTransferFunction,             !- Algorithm
  200;                                    !- Surface Temperature Upper Limit {C}

OS:RunPeriod,
  {9f3a5ee1-5653-4b90-b9f2-c02d69ca1bc9}, !- Handle
  Run Period 1,                           !- Name
  1,                                      !- Begin Month
  1,                                      !- Begin Day of Month
  12,                                     !- End Month
  31,                                     !- End Day of Month
  ,                                       !- Use Weather File Holidays and Special Days
  ,                                       !- Use Weather File Daylight Saving Period
  ,                                       !- Apply Weekend Holiday Rule
  ,                                       !- Use Weather File Rain Indicators
  ,                                       !- Use Weather File Snow Indicators
  ;                                       !- Number of Times Runperiod to be Repeated

OS:LifeCycleCost:Parameters,
  {b15e0430-56bb-4b9d-8b17-1a0b8600e9cc}, !- Handle
  ,                                       !- Analysis Type
  ,                                       !- Discounting Convention
  ,                                       !- Inflation Approach
  ,                                       !- Real Discount Rate
  ,                                       !- Nominal Discount Rate
  ,                                       !- Inflation
  ,                                       !- Base Date Month
  ,                                       !- Base Date Year
  ,                                       !- Service Date Month
  ,                                       !- Service Date Year
  ;                                       !- Length of Study Period in Years

OS:YearDescription,
  {4dac39a3-4aa7-4465-82e4-71ab4de4a715}, !- Handle
  2017,                                   !- Calendar Year
  ,                                       !- Day of Week for Start Day
  ;                                       !- Is Leap Year

OS:WeatherFile,
  {05a85b3b-bf14-4ec4-9a62-22631cf0c21a}, !- Handle
  Long Beach Daugherty Fld,               !- City
  CA,                                     !- State Province Region
  USA,                                    !- Country
  TMY3,                                   !- Data Source
  722970,                                 !- WMO Number
  33.83,                                  !- Latitude {deg}
  -118.17,                                !- Longitude {deg}
  -8,                                     !- Time Zone {hr}
  8,                                      !- Elevation {m}
  C:/Users/rjf/Desktop/UO_install/Run/UrbanOpt_NREL_UCI/Docker_test/weather/USA_CA_Long.Beach-Daugherty.Field.722970_TMY3.epw, !- Url
  ;                                       !- Checksum

OS:Site:WaterMainsTemperature,
  {0b9bdce2-c882-4e36-98ca-b3292e4ffc54}, !- Handle
  Correlation,                            !- Calculation Method
  ,                                       !- Temperature Schedule Name
  17.475,                                 !- Annual Average Outdoor Air Temperature {C}
  8.8;                                    !- Maximum Difference In Monthly Average Outdoor Air Temperatures {deltaC}

OS:SizingPeriod:DesignDay,
  {52486590-3609-42f6-bf83-ec8330b23979}, !- Handle
  Long Beach Daugherty Fld Ann Clg .4% Condns DB=>MWB 1, !- Name
  32.9,                                   !- Maximum Dry-Bulb Temperature {C}
  9.5,                                    !- Daily Dry-Bulb Temperature Range {deltaC}
  20,                                     !- Humidity Indicating Conditions at Maximum Dry-Bulb
  101229,                                 !- Barometric Pressure {Pa}
  4.1,                                    !- Wind Speed {m/s}
  280,                                    !- Wind Direction {deg}
  0,                                      !- Sky Clearness
  0,                                      !- Rain Indicator
  0,                                      !- Snow Indicator
  21,                                     !- Day of Month
  8,                                      !- Month
  SummerDesignDay,                        !- Day Type
  0,                                      !- Daylight Saving Time Indicator
  Wetbulb,                                !- Humidity Indicating Type
  ,                                       !- Humidity Indicating Day Schedule Name
  DefaultMultipliers,                     !- Dry-Bulb Temperature Range Modifier Type
  ,                                       !- Dry-Bulb Temperature Range Modifier Schedule Name
  ASHRAETau,                              !- Solar Model Indicator
  ,                                       !- Beam Solar Day Schedule Name
  ,                                       !- Diffuse Solar Day Schedule Name
  0.45,                                   !- ASHRAE Taub {dimensionless}
  2.074;                                  !- ASHRAE Taud {dimensionless}

OS:SizingPeriod:DesignDay,
  {eb214035-87ab-4a1b-a72e-e4c62e9ee0d5}, !- Handle
  Long Beach Daugherty Fld Ann Clg .4% Condns WB=>MDB 1, !- Name
  28.8,                                   !- Maximum Dry-Bulb Temperature {C}
  9.5,                                    !- Daily Dry-Bulb Temperature Range {deltaC}
  22.5,                                   !- Humidity Indicating Conditions at Maximum Dry-Bulb
  101229,                                 !- Barometric Pressure {Pa}
  4.1,                                    !- Wind Speed {m/s}
  280,                                    !- Wind Direction {deg}
  0,                                      !- Sky Clearness
  0,                                      !- Rain Indicator
  0,                                      !- Snow Indicator
  21,                                     !- Day of Month
  8,                                      !- Month
  SummerDesignDay,                        !- Day Type
  0,                                      !- Daylight Saving Time Indicator
  Wetbulb,                                !- Humidity Indicating Type
  ,                                       !- Humidity Indicating Day Schedule Name
  DefaultMultipliers,                     !- Dry-Bulb Temperature Range Modifier Type
  ,                                       !- Dry-Bulb Temperature Range Modifier Schedule Name
  ASHRAETau,                              !- Solar Model Indicator
  ,                                       !- Beam Solar Day Schedule Name
  ,                                       !- Diffuse Solar Day Schedule Name
  0.45,                                   !- ASHRAE Taub {dimensionless}
  2.074;                                  !- ASHRAE Taud {dimensionless}

OS:SizingPeriod:DesignDay,
  {a5a3033d-27f3-4f39-a1fa-abfcecca3e8f}, !- Handle
  Long Beach Daugherty Fld Ann Htg 99.6% Condns DB 1, !- Name
  5.1,                                    !- Maximum Dry-Bulb Temperature {C}
  0,                                      !- Daily Dry-Bulb Temperature Range {deltaC}
  5.1,                                    !- Humidity Indicating Conditions at Maximum Dry-Bulb
  101229,                                 !- Barometric Pressure {Pa}
  1.2,                                    !- Wind Speed {m/s}
  300,                                    !- Wind Direction {deg}
  0,                                      !- Sky Clearness
  0,                                      !- Rain Indicator
  0,                                      !- Snow Indicator
  21,                                     !- Day of Month
  12,                                     !- Month
  WinterDesignDay,                        !- Day Type
  0,                                      !- Daylight Saving Time Indicator
  Wetbulb,                                !- Humidity Indicating Type
  ,                                       !- Humidity Indicating Day Schedule Name
  DefaultMultipliers,                     !- Dry-Bulb Temperature Range Modifier Type
  ,                                       !- Dry-Bulb Temperature Range Modifier Schedule Name
  ASHRAEClearSky;                         !- Solar Model Indicator

OS:ClimateZones,
  {888edc8d-5908-435d-b026-4e81d558d60a}, !- Handle
  CEC,                                    !- Climate Zone Institution Name 1
  California Climate Zone Descriptions,   !- Climate Zone Document Name 1
  1995,                                   !- Climate Zone Document Year 1
  6;                                      !- Climate Zone Value 1

OS:RunPeriodControl:DaylightSavingTime,
  {19553bda-027a-4bf2-ad8e-9d4e4aee19b9}, !- Handle
  2nd Sunday in March,                    !- Start Date
  1st Sunday in November;                 !- End Date

OS:People:Definition,
  {3fdf3c09-bf0a-468b-88c3-276d5b4f5457}, !- Handle
  EPr Classroom People Definition,        !- Name
  People/Area,                            !- Number of People Calculation Method
  ,                                       !- Number of People {people}
  0.358438216876434,                      !- People per Space Floor Area {person/m2}
  ,                                       !- Space Floor Area per Person {m2/person}
  0.3;                                    !- Fraction Radiant

OS:Schedule:Ruleset,
  {0b885bd2-d0fe-40fe-b0e1-2bc570d0f186}, !- Handle
  Clothing Schedule,                      !- Name
  {09b31c7b-bd62-4cad-b303-5d55ac87344d}, !- Schedule Type Limits Name
  {7fbf7945-7ad6-4d17-8d0a-e19841cfa02c}; !- Default Day Schedule Name

OS:Schedule:Day,
  {7fbf7945-7ad6-4d17-8d0a-e19841cfa02c}, !- Handle
  Clothing Schedule Default Winter Clothes, !- Name
  {09b31c7b-bd62-4cad-b303-5d55ac87344d}, !- Schedule Type Limits Name
  ,                                       !- Interpolate to Timestep
  24,                                     !- Hour 1
  0,                                      !- Minute 1
  1;                                      !- Value Until Time 1

OS:Schedule:Rule,
  {3d8a0c86-2a71-4c6c-a745-8e93ec8219a9}, !- Handle
  Schedule Rule 1,                        !- Name
  {0b885bd2-d0fe-40fe-b0e1-2bc570d0f186}, !- Schedule Ruleset Name
  0,                                      !- Rule Order
  {56bc441e-1aa7-4448-b229-e67f493be455}, !- Day Schedule Name
  ,                                       !- Apply Sunday
  ,                                       !- Apply Monday
  ,                                       !- Apply Tuesday
  ,                                       !- Apply Wednesday
  ,                                       !- Apply Thursday
  ,                                       !- Apply Friday
  ,                                       !- Apply Saturday
  DateRange,                              !- Date Specification Type
  5,                                      !- Start Month
  1,                                      !- Start Day
  9,                                      !- End Month
  30;                                     !- End Day

OS:Schedule:Day,
  {56bc441e-1aa7-4448-b229-e67f493be455}, !- Handle
  Clothing Schedule Summer Clothes,       !- Name
  {09b31c7b-bd62-4cad-b303-5d55ac87344d}, !- Schedule Type Limits Name
  ,                                       !- Interpolate to Timestep
  24,                                     !- Hour 1
  0,                                      !- Minute 1
  0.5;                                    !- Value Until Time 1

OS:ScheduleTypeLimits,
  {09b31c7b-bd62-4cad-b303-5d55ac87344d}, !- Handle
  ClothingInsulation,                     !- Name
  0,                                      !- Lower Limit Value
  ,                                       !- Upper Limit Value
  Continuous,                             !- Numeric Type
  ClothingInsulation;                     !- Unit Type

OS:Schedule:Ruleset,
  {eab24d7d-4638-4a0b-889c-b476c5a47eae}, !- Handle
  Air Velocity Schedule,                  !- Name
  {db602b0b-e3e3-4f41-a43d-6a2445eece92}, !- Schedule Type Limits Name
  {0a653df5-45f2-4c38-ba51-5b998121eb78}; !- Default Day Schedule Name

OS:Schedule:Day,
  {0a653df5-45f2-4c38-ba51-5b998121eb78}, !- Handle
  Air Velocity Schedule Default,          !- Name
  {db602b0b-e3e3-4f41-a43d-6a2445eece92}, !- Schedule Type Limits Name
  ,                                       !- Interpolate to Timestep
  24,                                     !- Hour 1
  0,                                      !- Minute 1
  0.2;                                    !- Value Until Time 1

OS:ScheduleTypeLimits,
  {db602b0b-e3e3-4f41-a43d-6a2445eece92}, !- Handle
  Velocity,                               !- Name
  0,                                      !- Lower Limit Value
  ,                                       !- Upper Limit Value
  Continuous,                             !- Numeric Type
  Velocity;                               !- Unit Type

OS:Schedule:Ruleset,
  {2a0e8171-5d9c-4f2e-a42f-f9401f8ed9bc}, !- Handle
  Work Efficiency Schedule,               !- Name
  {9743b41c-2b0c-4563-8aeb-54e242b5b170}, !- Schedule Type Limits Name
  {5467aa44-38d3-4fab-8d9f-22ebb0b27bf6}; !- Default Day Schedule Name

OS:Schedule:Day,
  {5467aa44-38d3-4fab-8d9f-22ebb0b27bf6}, !- Handle
  Work Efficiency Schedule Default,       !- Name
  {9743b41c-2b0c-4563-8aeb-54e242b5b170}, !- Schedule Type Limits Name
  ,                                       !- Interpolate to Timestep
  24,                                     !- Hour 1
  0,                                      !- Minute 1
  0;                                      !- Value Until Time 1

OS:ScheduleTypeLimits,
  {9743b41c-2b0c-4563-8aeb-54e242b5b170}, !- Handle
  Fractional,                             !- Name
  0,                                      !- Lower Limit Value
  1,                                      !- Upper Limit Value
  Continuous;                             !- Numeric Type

OS:Lights:Definition,
  {f57a0660-3dd3-4671-b503-d96d2b6717ad}, !- Handle
  EPr Classroom Lights Definition (-67.53 percent change), !- Name
  Watts/Area,                             !- Design Level Calculation Method
  ,                                       !- Lighting Level {W}
  4.19350440975883,                       !- Watts per Space Floor Area {W/m2}
  ;                                       !- Watts per Person {W/person}

OS:AdditionalProperties,
  {5a36fd6e-a076-4bef-bc9e-7fd5fb99ea5d}, !- Handle
  {f57a0660-3dd3-4671-b503-d96d2b6717ad}, !- Object Name
  lpd_fraction_linear_fluorescent,        !- Feature Name 1
  Double,                                 !- Feature Data Type 1
  0.92149999999999999,                    !- Feature Value 1
  lpd_fraction_compact_fluorescent,       !- Feature Name 2
  Double,                                 !- Feature Data Type 2
  0.066799999999999998,                   !- Feature Value 2
  lpd_fraction_high_bay,                  !- Feature Name 3
  Double,                                 !- Feature Data Type 3
  0,                                      !- Feature Value 3
  lpd_fraction_specialty_lighting,        !- Feature Name 4
  Double,                                 !- Feature Data Type 4
  0.0048999999999999998,                  !- Feature Value 4
  lpd_fraction_exit_lighting,             !- Feature Name 5
  Double,                                 !- Feature Data Type 5
  0.0067999999999999996;                  !- Feature Value 5

OS:ElectricEquipment:Definition,
  {42624a47-4ed0-4908-82f4-c753e795ddff}, !- Handle
  EPr Classroom Elec Equip Definition (103.32 percent change), !- Name
  Watts/Area,                             !- Design Level Calculation Method
  ,                                       !- Design Level {W}
  21.884679112761,                        !- Watts per Space Floor Area {W/m2}
  ,                                       !- Watts per Person {W/person}
  0,                                      !- Fraction Latent
  0.5,                                    !- Fraction Radiant
  0;                                      !- Fraction Lost

OS:DesignSpecification:OutdoorAir,
  {287f8eb2-e715-46c2-b4ce-67d3034d139c}, !- Handle
  EPr Classroom Ventilation,              !- Name
  Sum,                                    !- Outdoor Air Method
  ,                                       !- Outdoor Air Flow per Person {m3/s-person}
  0.00254,                                !- Outdoor Air Flow per Floor Area {m3/s-m2}
  ,                                       !- Outdoor Air Flow Rate {m3/s}
  ,                                       !- Outdoor Air Flow Air Changes per Hour {1/hr}
  ;                                       !- Outdoor Air Flow Rate Fraction Schedule Name

OS:DefaultScheduleSet,
  {91112909-f2a7-4def-844f-817207c496dc}, !- Handle
  EPr Classroom Schedule Set,             !- Name
  ,                                       !- Hours of Operation Schedule Name
  {dc0a3580-9722-4c46-b77f-606c22911b68}, !- Number of People Schedule Name
  {86b94ea3-1df4-49c9-aae8-34b0dfe4c216}, !- People Activity Level Schedule Name
  {924464e3-2f81-4ddf-9ddf-2ba7c76727d4}, !- Lighting Schedule Name
  {3f0fd56f-e973-4f96-8f38-8950481d8acf}, !- Electric Equipment Schedule Name
  ,                                       !- Gas Equipment Schedule Name
  ,                                       !- Hot Water Equipment Schedule Name
  {2d2d5fbb-2096-4309-a01c-d3da35a02489}, !- Infiltration Schedule Name
  ,                                       !- Steam Equipment Schedule Name
  ;                                       !- Other Equipment Schedule Name

OS:Schedule:Ruleset,
  {dc0a3580-9722-4c46-b77f-606c22911b68}, !- Handle
  D_EPr_Clrm_Occup_Yr,                    !- Name
  {9743b41c-2b0c-4563-8aeb-54e242b5b170}, !- Schedule Type Limits Name
  {eafe0ecf-cc13-4d5b-a75d-11aca0ea28c4}, !- Default Day Schedule Name
  {a2b77bd0-9423-4a48-80c4-b4f82e42f42b}, !- Summer Design Day Schedule Name
  {cdbb2813-9292-4809-8c96-35fe0089b1dc}; !- Winter Design Day Schedule Name

OS:Schedule:Day,
  {eafe0ecf-cc13-4d5b-a75d-11aca0ea28c4}, !- Handle
  D_EPr_Clrm_Occup_Yr Default,            !- Name
  {9743b41c-2b0c-4563-8aeb-54e242b5b170}, !- Schedule Type Limits Name
  ,                                       !- Interpolate to Timestep
  7,                                      !- Hour 1
  0,                                      !- Minute 1
  0,                                      !- Value Until Time 1
  9,                                      !- Hour 2
  0,                                      !- Minute 2
  0.6,                                    !- Value Until Time 2
  14,                                     !- Hour 3
  0,                                      !- Minute 3
  1,                                      !- Value Until Time 3
  18,                                     !- Hour 4
  0,                                      !- Minute 4
  0.5,                                    !- Value Until Time 4
  19,                                     !- Hour 5
  0,                                      !- Minute 5
  0.1,                                    !- Value Until Time 5
  24,                                     !- Hour 6
  0,                                      !- Minute 6
  0;                                      !- Value Until Time 6

OS:Schedule:Rule,
  {dce3acde-eb03-43ce-9c8d-486423087713}, !- Handle
  Schedule Rule 2,                        !- Name
  {dc0a3580-9722-4c46-b77f-606c22911b68}, !- Schedule Ruleset Name
  8,                                      !- Rule Order
  {186c4319-e3ae-429e-8aea-843a96d9883b}, !- Day Schedule Name
  ,                                       !- Apply Sunday
  Yes,                                    !- Apply Monday
  Yes,                                    !- Apply Tuesday
  Yes,                                    !- Apply Wednesday
  Yes,                                    !- Apply Thursday
  Yes,                                    !- Apply Friday
  ,                                       !- Apply Saturday
  DateRange,                              !- Date Specification Type
  1,                                      !- Start Month
  5,                                      !- Start Day
  4,                                      !- End Month
  3;                                      !- End Day

OS:Schedule:Day,
  {186c4319-e3ae-429e-8aea-843a96d9883b}, !- Handle
  D_EPr_Clrm_Occup_Yr Default|Wkdy Day,   !- Name
  {9743b41c-2b0c-4563-8aeb-54e242b5b170}, !- Schedule Type Limits Name
  ,                                       !- Interpolate to Timestep
  7,                                      !- Hour 1
  0,                                      !- Minute 1
  0,                                      !- Value Until Time 1
  9,                                      !- Hour 2
  0,                                      !- Minute 2
  0.6,                                    !- Value Until Time 2
  14,                                     !- Hour 3
  0,                                      !- Minute 3
  1,                                      !- Value Until Time 3
  18,                                     !- Hour 4
  0,                                      !- Minute 4
  0.5,                                    !- Value Until Time 4
  19,                                     !- Hour 5
  0,                                      !- Minute 5
  0.1,                                    !- Value Until Time 5
  24,                                     !- Hour 6
  0,                                      !- Minute 6
  0;                                      !- Value Until Time 6

OS:Schedule:Rule,
  {13b5d7a6-76dc-466c-a8e1-b5f69526fe63}, !- Handle
  Schedule Rule 3,                        !- Name
  {dc0a3580-9722-4c46-b77f-606c22911b68}, !- Schedule Ruleset Name
  7,                                      !- Rule Order
  {dffa726e-d8f5-4866-bb7d-8861e398e0a0}, !- Day Schedule Name
  ,                                       !- Apply Sunday
  Yes,                                    !- Apply Monday
  Yes,                                    !- Apply Tuesday
  Yes,                                    !- Apply Wednesday
  Yes,                                    !- Apply Thursday
  Yes,                                    !- Apply Friday
  ,                                       !- Apply Saturday
  DateRange,                              !- Date Specification Type
  4,                                      !- Start Month
  13,                                     !- Start Day
  6,                                      !- End Month
  12;                                     !- End Day

OS:Schedule:Day,
  {dffa726e-d8f5-4866-bb7d-8861e398e0a0}, !- Handle
  D_EPr_Clrm_Occup_Yr Default|Wkdy Day 1, !- Name
  {9743b41c-2b0c-4563-8aeb-54e242b5b170}, !- Schedule Type Limits Name
  ,                                       !- Interpolate to Timestep
  7,                                      !- Hour 1
  0,                                      !- Minute 1
  0,                                      !- Value Until Time 1
  9,                                      !- Hour 2
  0,                                      !- Minute 2
  0.6,                                    !- Value Until Time 2
  14,                                     !- Hour 3
  0,                                      !- Minute 3
  1,                                      !- Value Until Time 3
  18,                                     !- Hour 4
  0,                                      !- Minute 4
  0.5,                                    !- Value Until Time 4
  19,                                     !- Hour 5
  0,                                      !- Minute 5
  0.1,                                    !- Value Until Time 5
  24,                                     !- Hour 6
  0,                                      !- Minute 6
  0;                                      !- Value Until Time 6

OS:Schedule:Rule,
  {136ea1e8-f210-48cb-bfee-7d07e3f4e0d9}, !- Handle
  Schedule Rule 4,                        !- Name
  {dc0a3580-9722-4c46-b77f-606c22911b68}, !- Schedule Ruleset Name
  6,                                      !- Rule Order
  {b6e3373a-43ad-4e36-8bb0-a8eaae6e339d}, !- Day Schedule Name
  ,                                       !- Apply Sunday
  Yes,                                    !- Apply Monday
  Yes,                                    !- Apply Tuesday
  Yes,                                    !- Apply Wednesday
  Yes,                                    !- Apply Thursday
  Yes,                                    !- Apply Friday
  ,                                       !- Apply Saturday
  DateRange,                              !- Date Specification Type
  8,                                      !- Start Month
  17,                                     !- Start Day
  12,                                     !- End Month
  11;                                     !- End Day

OS:Schedule:Day,
  {b6e3373a-43ad-4e36-8bb0-a8eaae6e339d}, !- Handle
  D_EPr_Clrm_Occup_Yr Default|Wkdy Day 2, !- Name
  {9743b41c-2b0c-4563-8aeb-54e242b5b170}, !- Schedule Type Limits Name
  ,                                       !- Interpolate to Timestep
  7,                                      !- Hour 1
  0,                                      !- Minute 1
  0,                                      !- Value Until Time 1
  9,                                      !- Hour 2
  0,                                      !- Minute 2
  0.6,                                    !- Value Until Time 2
  14,                                     !- Hour 3
  0,                                      !- Minute 3
  1,                                      !- Value Until Time 3
  18,                                     !- Hour 4
  0,                                      !- Minute 4
  0.5,                                    !- Value Until Time 4
  19,                                     !- Hour 5
  0,                                      !- Minute 5
  0.1,                                    !- Value Until Time 5
  24,                                     !- Hour 6
  0,                                      !- Minute 6
  0;                                      !- Value Until Time 6

OS:Schedule:Rule,
  {6307b0db-1655-4676-93b7-082a2c5d705d}, !- Handle
  Schedule Rule 5,                        !- Name
  {dc0a3580-9722-4c46-b77f-606c22911b68}, !- Schedule Ruleset Name
  5,                                      !- Rule Order
  {78ddc500-cf0f-4d17-bafd-d93f5b780438}, !- Day Schedule Name
  ,                                       !- Apply Sunday
  ,                                       !- Apply Monday
  ,                                       !- Apply Tuesday
  ,                                       !- Apply Wednesday
  ,                                       !- Apply Thursday
  ,                                       !- Apply Friday
  Yes,                                    !- Apply Saturday
  DateRange,                              !- Date Specification Type
  1,                                      !- Start Month
  5,                                      !- Start Day
  4,                                      !- End Month
  3;                                      !- End Day

OS:Schedule:Day,