
OS:Version,
  {4650bf3d-db6c-4d41-89a1-538ed6ccc2fe}, !- Handle
  3.4.0;                                  !- Version Identifier