
OS:Version,
  {63d70650-6ebb-455d-be79-3ef9d415f391}, !- Handle
  3.1.0;                                  !- Version Identifier
