  Version,9.6;

  Building,
    Refrig Case Model,       !- Name
    0,                       !- North Axis {deg}
    Suburbs,                 !- Terrain
    0.04,                    !- Loads Convergence Tolerance Value {W}
    0.4,                     !- Temperature Convergence Tolerance Value {deltaC}
    FullInteriorAndExteriorWithReflections,  !- Solar Distribution
    25,                      !- Maximum Number of Warmup Days
    6;                       !- Minimum Number of Warmup Days

  Timestep,60;

  SimulationControl,
    No,                      !- Do Zone Sizing Calculation
    No,                      !- Do System Sizing Calculation
    No,                      !- Do Plant Sizing Calculation
    No,                      !- Run Simulation for Sizing Periods
    Yes,                     !- Run Simulation for Weather File Run Periods
    ,                        !- Do HVAC Sizing Simulation for Sizing Periods
    ;                        !- Maximum Number of HVAC Sizing Simulation Passes

  RunPeriod,
    Run Period,              !- Name
    1,                       !- Begin Month
    8,                       !- Begin Day of Month
    ,                        !- Begin Year
    1,                       !- End Month
    11,                      !- End Day of Month
    ,                        !- End Year
    Thursday,                !- Day of Week for Start Day
    No,                      !- Use Weather File Holidays and Special Days
    No,                      !- Use Weather File Daylight Saving Period
    No,                      !- Apply Weekend Holiday Rule
    Yes,                     !- Use Weather File Rain Indicators
    Yes,                     !- Use Weather File Snow Indicators
    ;                        !- Treat Weather as Actual

  Site:Location,
    Dayton Wright Patterson Air Force Base,  !- Name
    39.83,                   !- Latitude {deg}
    -84.05,                  !- Longitude {deg}
    -5,                      !- Time Zone {hr}
    250.0;                   !- Elevation {m}

  GlobalGeometryRules,
    UpperLeftCorner,         !- Starting Vertex Position
    Counterclockwise,        !- Vertex Entry Direction
    Relative;                !- Coordinate System

  Construction,
    False Floor,             !- Name
    1in Wood;                !- Outside Layer

  Material,
    1in Wood,                !- Name
    MediumSmooth,            !- Roughness
    0.0254,                  !- Thickness {m}
    0.15,                    !- Conductivity {W/m-K}
    608,                     !- Density {kg/m3}
    1630;                    !- Specific Heat {J/kg-K}

  Construction,
    IEAD Roof,               !- Name
    Roof Membrane,           !- Outside Layer
    Roof Insulation,         !- Layer 2
    Roof Decking;            !- Layer 3

  Material,
    Roof Membrane,           !- Name
    VeryRough,               !- Roughness
    0.0095,                  !- Thickness {m}
    0.16,                    !- Conductivity {W/m-K}
    1121.29,                 !- Density {kg/m3}
    1460,                    !- Specific Heat {J/kg-K}
    0.9,                     !- Thermal Absorptance
    0.7,                     !- Solar Absorptance
    0.7;                     !- Visible Absorptance

  Material:NoMass,
    Roof Insulation,         !- Name
    MediumRough,             !- Roughness
    3.5222,                  !- Thermal Resistance {m2-K/W}
    0.9,                     !- Thermal Absorptance
    0.7,                     !- Solar Absorptance
    0.7;                     !- Visible Absorptance

  Material,
    Roof Decking,            !- Name
    MediumSmooth,            !- Roughness
    0.0015,                  !- Thickness {m}
    45.006,                  !- Conductivity {W/m-K}
    7680,                    !- Density {kg/m3}
    418.4,                   !- Specific Heat {J/kg-K}
    0.9,                     !- Thermal Absorptance
    0.7,                     !- Solar Absorptance
    0.3;                     !- Visible Absorptance

  Construction,
    Int Wall,                !- Name
    5/8in Gypsum,            !- Outside Layer
    Air Gap,                 !- Layer 2
    5/8in Gypsum;            !- Layer 3

  Material,
    5/8in Gypsum,            !- Name
    Smooth,                  !- Roughness
    0.015875,                !- Thickness {m}
    0.16,                    !- Conductivity {W/m-K}
    800,                     !- Density {kg/m3}
    1090,                    !- Specific Heat {J/kg-K}
    0.9,                     !- Thermal Absorptance
    0.7,                     !- Solar Absorptance
    0.7;                     !- Visible Absorptance

  Material:AirGap,
    Air Gap,                 !- Name
    0.16;                    !- Thermal Resistance {m2-K/W}

  Construction,
    Ext Wall,                !- Name
    4in MW Concrete,         !- Outside Layer
    Air Gap,                 !- Layer 2
    5/8in Gypsum;            !- Layer 3

  Material,
    4in MW Concrete,         !- Name
    Rough,                   !- Roughness
    0.1000,                  !- Thickness {m}
    0.858,                   !- Conductivity {W/m-K}
    1968,                    !- Density {kg/m3}
    836.8,                   !- Specific Heat {J/kg-K}
    0.9,                     !- Thermal Absorptance
    0.7,                     !- Solar Absorptance
    0.7;                     !- Visible Absorptance

  Zone,
    Zn1,                     !- Name
    0,                       !- Direction of Relative North {deg}
    0,                       !- X Origin {m}
    0,                       !- Y Origin {m}
    0,                       !- Z Origin {m}
    ,                        !- Type
    1,                       !- Multiplier
    AutoCalculate,           !- Ceiling Height {m}
    AutoCalculate,           !- Volume {m3}
    AutoCalculate,           !- Floor Area {m2}
    ,                        !- Zone Inside Convection Algorithm
    ,                        !- Zone Outside Convection Algorithm
    Yes;                     !- Part of Total Floor Area

  BuildingSurface:Detailed,
    Zn1 Floor,               !- Name
    Floor,                   !- Surface Type
    False Floor,             !- Construction Name
    Zn1,                     !- Zone Name
    ,                        !- Space Name
    Adiabatic,               !- Outside Boundary Condition
    ,                        !- Outside Boundary Condition Object
    NoSun,                   !- Sun Exposure
    NoWind,                  !- Wind Exposure
    ,                        !- View Factor to Ground
    4,                       !- Number of Vertices
    17.0688,12.8016,0,  !- X,Y,Z ==> Vertex 1 {m}
    17.0688,0,0,  !- X,Y,Z ==> Vertex 2 {m}
    0,0,0,  !- X,Y,Z ==> Vertex 3 {m}
    0,12.8016,0;  !- X,Y,Z ==> Vertex 4 {m}

  BuildingSurface:Detailed,
    Zn1 North Wall,          !- Name
    Wall,                    !- Surface Type
    Int Wall,                !- Construction Name
    Zn1,                     !- Zone Name
    ,                        !- Space Name
    Adiabatic,               !- Outside Boundary Condition
    ,                        !- Outside Boundary Condition Object
    NoSun,                   !- Sun Exposure
    NoWind,                  !- Wind Exposure
    ,                        !- View Factor to Ground
    4,                       !- Number of Vertices
    17.0688,12.8016,4.3688,  !- X,Y,Z ==> Vertex 1 {m}
    17.0688,12.8016,0,  !- X,Y,Z ==> Vertex 2 {m}
    0,12.8016,0,  !- X,Y,Z ==> Vertex 3 {m}
    0,12.8016,4.3688;  !- X,Y,Z ==> Vertex 4 {m}

  BuildingSurface:Detailed,
    Zn1 East Wall,           !- Name
    Wall,                    !- Surface Type
    Ext Wall,                !- Construction Name
    Zn1,                     !- Zone Name
    ,                        !- Space Name
    Outdoors,                !- Outside Boundary Condition
    ,                        !- Outside Boundary Condition Object
    SunExposed,              !- Sun Exposure
    WindExposed,             !- Wind Exposure
    ,                        !- View Factor to Ground
    4,                       !- Number of Vertices
    17.0688,0,4.3688,  !- X,Y,Z ==> Vertex 1 {m}
    17.0688,0,0,  !- X,Y,Z ==> Vertex 2 {m}
    17.0688,12.8016,0,  !- X,Y,Z ==> Vertex 3 {m}
    17.0688,12.8016,4.3688;  !- X,Y,Z ==> Vertex 4 {m}

  BuildingSurface:Detailed,
    Zn1 South Wall,          !- Name
    Wall,                    !- Surface Type
    Int Wall,                !- Construction Name
    Zn1,                     !- Zone Name
    ,                        !- Space Name
    Adiabatic,               !- Outside Boundary Condition
    ,                        !- Outside Boundary Condition Object
    NoSun,                   !- Sun Exposure
    NoWind,                  !- Wind Exposure
    ,                        !- View Factor to Ground
    4,                       !- Number of Vertices
    0,0,4.3688,  !- X,Y,Z ==> Vertex 1 {m}
    0,0,0,  !- X,Y,Z ==> Vertex 2 {m}
    17.0688,0,0,  !- X,Y,Z ==> Vertex 3 {m}
    17.0688,0,4.3688;  !- X,Y,Z ==> Vertex 4 {m}

  BuildingSurface:Detailed,
    Zn1 West Wall,           !- Name
    Wall,                    !- Surface Type
    Int Wall,                !- Construction Name
    Zn1,                     !- Zone Name
    ,                        !- Space Name
    Adiabatic,               !- Outside Boundary Condition
    ,                        !- Outside Boundary Condition Object
    NoSun,                   !- Sun Exposure
    NoWind,                  !- Wind Exposure
    ,                        !- View Factor to Ground
    4,                       !- Number of Vertices
    0,12.8016,4.3688,  !- X,Y,Z ==> Vertex 1 {m}
    0,12.8016,0,  !- X,Y,Z ==> Vertex 2 {m}
    0,0,0,  !- X,Y,Z ==> Vertex 3 {m}
    0,0,4.3688;  !- X,Y,Z ==> Vertex 4 {m}

  BuildingSurface:Detailed,
    Zn1 Roof,                !- Name
    Roof,                    !- Surface Type
    IEAD Roof,               !- Construction Name
    Zn1,                     !- Zone Name
    ,                        !- Space Name
    Outdoors,                !- Outside Boundary Condition
    ,                        !- Outside Boundary Condition Object
    SunExposed,              !- Sun Exposure
    WindExposed,             !- Wind Exposure
    ,                        !- View Factor to Ground
    4,                       !- Number of Vertices
    0,12.8016,4.3688,  !- X,Y,Z ==> Vertex 1 {m}
    0,0,4.3688,  !- X,Y,Z ==> Vertex 2 {m}
    17.0688,0,4.3688,  !- X,Y,Z ==> Vertex 3 {m}
    17.0688,12.8016,4.3688;  !- X,Y,Z ==> Vertex 4 {m}

  ScheduleTypeLimits,
    On/Off,                  !- Name
    0,                       !- Lower Limit Value
    1,                       !- Upper Limit Value
    Discrete,                !- Numeric Type
    Dimensionless;           !- Unit Type

  ScheduleTypeLimits,
    Fraction,                !- Name
    0,                       !- Lower Limit Value
    1,                       !- Upper Limit Value
    Continuous,              !- Numeric Type
    Dimensionless;           !- Unit Type

  Schedule:Constant,Always On,On/Off,1;

  Schedule:Constant,Always Off,On/Off,0;

  Lights,
    Zn1 Lights,              !- Name
    Zn1,                     !- Zone or ZoneList or Space or SpaceList Name
    Light Sch,               !- Schedule Name
    Watts/Area,              !- Design Level Calculation Method
    ,                        !- Lighting Level {W}
    10.764,                  !- Watts per Zone Floor Area {W/m2}
    ,                        !- Watts per Person {W/person}
    0,                       !- Return Air Fraction
    0.7,                     !- Fraction Radiant
    0.2,                     !- Fraction Visible
    1;                       !- Fraction Replaceable

  ElectricEquipment,
    Zn1 Equipment,           !- Name
    Zn1,                     !- Zone or ZoneList or Space or SpaceList Name
    Always On,               !- Schedule Name
    EquipmentLevel,          !- Design Level Calculation Method
    500,                     !- Design Level {W}
    ,                        !- Watts per Zone Floor Area {W/m2}
    ,                        !- Watts per Person {W/person}
    0,                       !- Fraction Latent
    0.7,                     !- Fraction Radiant
    0,                       !- Fraction Lost
    ;                        !- End-Use Subcategory

  Schedule:Compact,
    Light Sch,               !- Name
    On/Off,                  !- Schedule Type Limits Name
    Through: 12/31,          !- Field 1
    For: AllDays,            !- Field 2
    Until: 06:00,0,          !- Field 3
    Until: 18:00,1,          !- Field 5
    Until: 24:00,0;          !- Field 7

  ZoneCapacitanceMultiplier:ResearchSpecial,
    Zn1 Cap Mult,            !- Name
    Zn1,                     !- Zone or ZoneList Name
    6,                       !- Temperature Capacity Multiplier
    6,                       !- Humidity Capacity Multiplier
    1,                       !- Carbon Dioxide Capacity Multiplier
    1;                       !- Generic Contaminant Capacity Multiplier

  ZoneInfiltration:DesignFlowRate,
    Infiltration,            !- Name
    Zn1,                     !- Zone or ZoneList Name
    Infil Sch,               !- Schedule Name
    Flow/Zone,               !- Design Flow Rate Calculation Method
    0.1416,                  !- Design Flow Rate {m3/s}
    ,                        !- Flow per Zone Floor Area {m3/s-m2}
    ,                        !- Flow per Exterior Surface Area {m3/s-m2}
    ,                        !- Air Changes per Hour {1/hr}
    1,                       !- Constant Term Coefficient
    0,                       !- Temperature Term Coefficient
    0,                       !- Velocity Term Coefficient
    0;                       !- Velocity Squared Term Coefficient

  Schedule:Compact,
    Infil Sch,               !- Name
    On/Off,                  !- Schedule Type Limits Name
    Through: 4/30,           !- Field 1
    For: AllDays,            !- Field 2
    Until: 24:00,0,          !- Field 3
    Through: 8/31,           !- Field 5
    For: AllDays,            !- Field 6
    Until: 06:00,0,          !- Field 7
    Until: 18:00,1,          !- Field 9
    Until: 24:00,0,          !- Field 11
    Through: 12/31,          !- Field 13
    For: AllDays,            !- Field 14
    Until: 24:00,0;          !- Field 15

  ZoneControl:Thermostat,
    Zn1 Thermostat,          !- Name
    Zn1,                     !- Zone or ZoneList Name
    Thermostat Control Type Schedule,  !- Control Type Schedule Name
    ThermostatSetpoint:DualSetpoint,  !- Control 1 Object Type
    Thermostat Setpoint,     !- Control 1 Name
    ,                        !- Control 2 Object Type
    ,                        !- Control 2 Name
    ,                        !- Control 3 Object Type
    ,                        !- Control 3 Name
    ,                        !- Control 4 Object Type
    ,                        !- Control 4 Name
    1;                       !- Temperature Difference Between Cutout And Setpoint {deltaC}

  Schedule:Constant,Thermostat Control Type Schedule,Thermostat Control Type,4;

  ScheduleTypeLimits,
    Thermostat Control Type, !- Name
    0,                       !- Lower Limit Value
    4,                       !- Upper Limit Value
    Discrete,                !- Numeric Type
    Control;                 !- Unit Type

  ThermostatSetpoint:DualSetpoint,
    Thermostat Setpoint,     !- Name
    Htg Setpoint,            !- Heating Setpoint Temperature Schedule Name
    Clg Setpoint;            !- Cooling Setpoint Temperature Schedule Name

  Schedule:Compact,
    Htg Setpoint,            !- Name
    Temperature,             !- Schedule Type Limits Name
    Through: 12/31,          !- Field 1
    For: AllDays,            !- Field 2
    Until: 24:00,21.667;     !- Field 3

  Schedule:Compact,
    Clg Setpoint,            !- Name
    Temperature,             !- Schedule Type Limits Name
    Through: 8/11,           !- Field 1
    For: AllDays,            !- Field 2
    Until: 24:00,23.889,     !- Field 3
    Through: 8/12,           !- Field 5
    For: AllDays,            !- Field 6
    Until: 9:30,23.889,      !- Field 7
    Until: 16:30,23.889,     !- Field 9
    Until: 24:00,23.889,     !- Field 11
    Through: 12/31,          !- Field 13
    For: AllDays,            !- Field 14
    Until: 24:00,23.889;     !- Field 15

  ScheduleTypeLimits,
    Temperature,             !- Name
    -100,                    !- Lower Limit Value
    100,                     !- Upper Limit Value
    Continuous,              !- Numeric Type
    Temperature;             !- Unit Type

  ZoneControl:Humidistat,
    Zn1 Humidistat,          !- Name
    Zn1,                     !- Zone Name
    Humid Setpoint,          !- Humidifying Relative Humidity Setpoint Schedule Name
    Dehumid Setpoint;        !- Dehumidifying Relative Humidity Setpoint Schedule Name

  Schedule:Compact,
    Humid Setpoint,          !- Name
    Humidity,                !- Schedule Type Limits Name
    Through: 12/31,          !- Field 1
    For: AllDays,            !- Field 2
    Until: 24:00,40;         !- Field 3

  Schedule:Compact,
    Dehumid Setpoint,        !- Name
    Humidity,                !- Schedule Type Limits Name
    Through: 12/31,          !- Field 1
    For: AllDays,            !- Field 2
    Until: 24:00,95;         !- Field 3

  ScheduleTypeLimits,
    Humidity,                !- Name
    0,                       !- Lower Limit Value
    100,                     !- Upper Limit Value
    Continuous,              !- Numeric Type
    Percent;                 !- Unit Type

  ZoneHVAC:EquipmentConnections,
    Zn1,                     !- Zone Name
    Zn1 HVAC Equipment List, !- Zone Conditioning Equipment List Name
    Zn1 Air Inlet Node List, !- Zone Air Inlet Node or NodeList Name
    ,                        !- Zone Air Exhaust Node or NodeList Name
    Zn1 Air Node,            !- Zone Air Node Name
    Zn1 Return Air Node;     !- Zone Return Air Node or NodeList Name

  NodeList,
    Zn1 Air Inlet Node List, !- Name
    Zn1 Supply Air Node;     !- Node 1 Name

  ZoneHVAC:EquipmentList,
    Zn1 HVAC Equipment List, !- Name
    SequentialLoad,          !- Load Distribution Scheme
    ZoneHVAC:AirDistributionUnit,  !- Zone Equipment 1 Object Type
    Zn1 Air Terminal Air Dist Unit,  !- Zone Equipment 1 Name
    1,                       !- Zone Equipment 1 Cooling Sequence
    1,                       !- Zone Equipment 1 Heating or No-Load Sequence
    ,                        !- Zone Equipment 1 Sequential Cooling Fraction Schedule Name
    ;                        !- Zone Equipment 1 Sequential Heating Fraction Schedule Name

  AirTerminal:SingleDuct:ConstantVolume:NoReheat,
    Zn1 Air Terminal,        !- Name
    Always On,               !- Availability Schedule Name
    Zn1 Supply Air Node Terminal Inlet,  !- Air Inlet Node Name
    Zn1 Supply Air Node,     !- Air Outlet Node Name
    1.415841,                !- Maximum Air Flow Rate {m3/s}
    ,                        !- Design Specification Outdoor Air Object Name
    ;                        !- Per Person Ventilation Rate Mode

  ZoneHVAC:AirDistributionUnit,
    Zn1 Air Terminal Air Dist Unit,  !- Name
    Zn1 Supply Air Node,     !- Air Distribution Unit Outlet Node Name
    AirTerminal:SingleDuct:ConstantVolume:NoReheat,  !- Air Terminal Object Type
    Zn1 Air Terminal,        !- Air Terminal Name
    ,                        !- Nominal Upstream Leakage Fraction
    ,                        !- Constant Downstream Leakage Fraction
    ;                        !- Design Specification Air Terminal Sizing Object Name

  SetpointManager:SingleZone:Reheat,
    Zn1 Supply Air Temp Mgr, !- Name
    Temperature,             !- Control Variable
    10,                      !- Minimum Supply Air Temperature {C}
    50,                      !- Maximum Supply Air Temperature {C}
    Zn1,                     !- Control Zone Name
    Zn1 Air Node,            !- Zone Node Name
    Zn1 Supply Air Node,     !- Zone Inlet Node Name
    Humidifier Outlet Node;  !- Setpoint Node or NodeList Name

  SetpointManager:SingleZone:Humidity:Minimum,
    Zn1 Min RH Mgr,          !- Name
    Humidifier Outlet Node,  !- Setpoint Node or NodeList Name
    Zn1 Air Node;            !- Control Zone Air Node Name

  SetpointManager:SingleZone:Humidity:Maximum,
    Zn1 Max RH Mgr,          !- Name
    Humidifier Outlet Node,  !- Setpoint Node or NodeList Name
    Zn1 Air Node;            !- Control Zone Air Node Name

  AirLoopHVAC,
    RTU,                     !- Name
    ,                        !- Controller List Name
    ,                        !- Availability Manager List Name
    1.415841,                !- Design Supply Air Flow Rate {m3/s}
    RTU Branches,            !- Branch List Name
    ,                        !- Connector List Name
    RTU Supply Inlet Node,   !- Supply Side Inlet Node Name
    RTU Demand Outlet Node,  !- Demand Side Outlet Node Name
    RTU Demand Inlet Node,   !- Demand Side Inlet Node Names
    Humidifier Outlet Node;  !- Supply Side Outlet Node Names

  AvailabilityManagerAssignmentList,
    RTU Avail Mgr List,      !- Name
    AvailabilityManager:Scheduled,  !- Availability Manager 1 Object Type
    RTU Avail Mgr;           !- Availability Manager 1 Name

  AvailabilityManager:Scheduled,
    RTU Avail Mgr,           !- Name
    Always On;               !- Schedule Name

  BranchList,
    RTU Branches,            !- Name
    RTU Main Branch;         !- Branch 1 Name

  Branch,
    RTU Main Branch,         !- Name
    ,                        !- Pressure Drop Curve Name
    AirLoopHVAC:UnitarySystem,  !- Component 1 Object Type
    RTU,                     !- Component 1 Name
    RTU Supply Inlet Node,   !- Component 1 Inlet Node Name
    RTU Supply Outlet Node,  !- Component 1 Outlet Node Name
    Humidifier:Steam:Electric,  !- Component 2 Object Type
    Humidifier,              !- Component 2 Name
    RTU Supply Outlet Node,  !- Component 2 Inlet Node Name
    Humidifier Outlet Node;  !- Component 2 Outlet Node Name

  AirLoopHVAC:UnitarySystem,
    RTU,                     !- Name
    Load,                    !- Control Type
    Zn1,                     !- Controlling Zone or Thermostat Location
    CoolReheat,              !- Dehumidification Control Type
    Always On,               !- Availability Schedule Name
    RTU Supply Inlet Node,   !- Air Inlet Node Name
    RTU Supply Outlet Node,  !- Air Outlet Node Name
    Fan:OnOff,               !- Supply Fan Object Type
    RTU Fan,                 !- Supply Fan Name
    BlowThrough,             !- Fan Placement
    Always Off,              !- Supply Air Fan Operating Mode Schedule Name
    Coil:Heating:Fuel,       !- Heating Coil Object Type
    RTU Heat Coil,           !- Heating Coil Name
    ,                        !- DX Heating Coil Sizing Ratio
    Coil:Cooling:DX:SingleSpeed,  !- Cooling Coil Object Type
    RTU Cool Coil,           !- Cooling Coil Name
    No,                      !- Use DOAS DX Cooling Coil
    2,                       !- Minimum Supply Air Temperature {C}
    LatentWithSensibleLoadControl,  !- Latent Load Control
    Coil:Heating:Electric,   !- Supplemental Heating Coil Object Type
    RTU Reheat Coil,         !- Supplemental Heating Coil Name
    SupplyAirFlowRate,       !- Cooling Supply Air Flow Rate Method
    1.415841,                !- Cooling Supply Air Flow Rate {m3/s}
    ,                        !- Cooling Supply Air Flow Rate Per Floor Area {m3/s-m2}
    ,                        !- Cooling Fraction of Autosized Cooling Supply Air Flow Rate
    ,                        !- Cooling Supply Air Flow Rate Per Unit of Capacity {m3/s-W}
    SupplyAirFlowRate,       !- Heating Supply Air Flow Rate Method
    1.415841,                !- Heating Supply Air Flow Rate {m3/s}
    ,                        !- Heating Supply Air Flow Rate Per Floor Area {m3/s-m2}
    ,                        !- Heating Fraction of Autosized Heating Supply Air Flow Rate
    ,                        !- Heating Supply Air Flow Rate Per Unit of Capacity {m3/s-W}
    SupplyAirFlowRate,       !- No Load Supply Air Flow Rate Method
    0,                       !- No Load Supply Air Flow Rate {m3/s}
    ,                        !- No Load Supply Air Flow Rate Per Floor Area {m3/s-m2}
    ,                        !- No Load Fraction of Autosized Cooling Supply Air Flow Rate
    ,                        !- No Load Fraction of Autosized Heating Supply Air Flow Rate
    ,                        !- No Load Supply Air Flow Rate Per Unit of Capacity During Cooling Operation {m3/s-W}
    ,                        !- No Load Supply Air Flow Rate Per Unit of Capacity During Heating Operation {m3/s-W}
    80;                      !- Maximum Supply Air Temperature {C}

  OutdoorAir:Node,
    RTU Condenser Node;      !- Name

  Fan:OnOff,
    RTU Fan,                 !- Name
    Always On,               !- Availability Schedule Name
    0.4,                     !- Fan Total Efficiency
    500,                     !- Pressure Rise {Pa}
    1.415841,                !- Maximum Flow Rate {m3/s}
    1,                       !- Motor Efficiency
    1,                       !- Motor In Airstream Fraction
    RTU Supply Inlet Node,   !- Air Inlet Node Name
    RTU Cool Coil Inlet Node;!- Air Outlet Node Name

  Coil:Cooling:DX:SingleSpeed,
    RTU Cool Coil,           !- Name
    Always On,               !- Availability Schedule Name
    26377.5,                 !- Gross Rated Total Cooling Capacity {W}
    0.78,                    !- Gross Rated Sensible Heat Ratio
    3.9,                     !- Gross Rated Cooling COP {W/W}
    1.415841,                !- Rated Air Flow Rate {m3/s}
    ,                        !- Rated Evaporator Fan Power Per Volume Flow Rate {W/(m3/s)}
    RTU Cool Coil Inlet Node,!- Air Inlet Node Name
    RTU Heat Coil Inlet Node,!- Air Outlet Node Name
    CoolCapfT,               !- Total Cooling Capacity Function of Temperature Curve Name
    CoolCapfFF,              !- Total Cooling Capacity Function of Flow Fraction Curve Name
    CoolEIRfT,               !- Energy Input Ratio Function of Temperature Curve Name
    CoolEIRfFF,              !- Energy Input Ratio Function of Flow Fraction Curve Name
    PLFfPLR,                 !- Part Load Fraction Correlation Curve Name
    ,                        !- Minimum Outdoor Dry-Bulb Temperature for Compressor Operation {C}
    1000,                    !- Nominal Time for Condensate Removal to Begin {s}
    1.5,                     !- Ratio of Initial Moisture Evaporation Rate and Steady State Latent Capacity {dimensionless}
    3,                       !- Maximum Cycling Rate {cycles/hr}
    45,                      !- Latent Capacity Time Constant {s}
    RTU Condenser Node,      !- Condenser Air Inlet Node Name
    AirCooled,               !- Condenser Type
    ,                        !- Evaporative Condenser Effectiveness {dimensionless}
    ,                        !- Evaporative Condenser Air Flow Rate {m3/s}
    ,                        !- Evaporative Condenser Pump Rated Power Consumption {W}
    0,                       !- Crankcase Heater Capacity {W}
    10,                      !- Maximum Outdoor Dry-Bulb Temperature for Crankcase Heater Operation {C}
    ,                        !- Supply Water Storage Tank Name
    ,                        !- Condensate Collection Water Storage Tank Name
    0,                       !- Basin Heater Capacity {W/K}
    2,                       !- Basin Heater Setpoint Temperature {C}
    ,                        !- Basin Heater Operating Schedule Name
    ,                        !- Sensible Heat Ratio Function of Temperature Curve Name
    ,                        !- Sensible Heat Ratio Function of Flow Fraction Curve Name
    ,                        !- Report ASHRAE Standard 127 Performance Ratings
    ;                        !- Zone Name for Condenser Placement

  Curve:Biquadratic,
    CoolCapfT,               !- Name
    1.6380187,               !- Coefficient1 Constant
    -0.0747347,              !- Coefficient2 x
    0.0029747,               !- Coefficient3 x**2
    0.0015201,               !- Coefficient4 y
    -0.0000519,              !- Coefficient5 y**2
    -0.0004509,              !- Coefficient6 x*y
    13.89,                   !- Minimum Value of x
    22.22,                   !- Maximum Value of x
    23.89,                   !- Minimum Value of y
    51.67,                   !- Maximum Value of y
    ,                        !- Minimum Curve Output
    ,                        !- Maximum Curve Output
    Temperature,             !- Input Unit Type for X
    Temperature,             !- Input Unit Type for Y
    Dimensionless;           !- Output Unit Type

  Curve:Quadratic,
    CoolCapfFF,              !- Name
    0.8185792,               !- Coefficient1 Constant
    0.2831771,               !- Coefficient2 x
    -0.1017563,              !- Coefficient3 x**2
    0.875,                   !- Minimum Value of x
    1.125;                   !- Maximum Value of x

  Curve:Biquadratic,
    CoolEIRfT,               !- Name
    -0.2209648,              !- Coefficient1 Constant
    0.1033303,               !- Coefficient2 x
    -0.0030061,              !- Coefficient3 x**2
    -0.0070657,              !- Coefficient4 y
    0.0006322,               !- Coefficient5 y**2
    -0.0002496,              !- Coefficient6 x*y
    13.89,                   !- Minimum Value of x
    22.22,                   !- Maximum Value of x
    23.89,                   !- Minimum Value of y
    51.67,                   !- Maximum Value of y
    ,                        !- Minimum Curve Output
    ,                        !- Maximum Curve Output
    Temperature,             !- Input Unit Type for X
    Temperature,             !- Input Unit Type for Y