
OS:Version,
  {a9d15b0d-e01a-4c7d-ab48-4cb87a09f034}, !- Handle
  3.2.1;                                  !- Version Identifier

OS:Building,
  {08b579df-447b-41d1-8a8e-b0063213b0fb}, !- Handle
  Building 1,                             !- Name
  ,                                       !- Building Sector Type
  135,                                    !- North Axis {deg}
  ,                                       !- Nominal Floor to Floor Height {m}
  ,                                       !- Space Type Name
  ,                                       !- Default Construction Set Name
  ,                                       !- Default Schedule Set Name
  4,                                      !- Standards Number of Stories
  4,                                      !- Standards Number of Above Ground Stories
  ,                                       !- Standards Template
  multifamily,                            !- Standards Building Type
  67;                                     !- Standards Number of Living Units

OS:Facility,
  {5277487c-8805-4691-b67e-4fa9ff12d4e9}; !- Handle

OS:Site,
  {9d53c6b0-2075-4bb0-8130-d51ac84c2b58}, !- Handle
  Roanoke Regional Ap_VA_USA,             !- Name
  37.32,                                  !- Latitude {deg}
  -79.97,                                 !- Longitude {deg}
  -5,                                     !- Time Zone {hr}
  350,                                    !- Elevation {m}
  Suburbs;                                !- Terrain

OS:SimulationControl,
  {509cb452-522c-4fea-9ab8-fe5a070dbcb1}, !- Handle
  ,                                       !- Do Zone Sizing Calculation
  ,                                       !- Do System Sizing Calculation
  ,                                       !- Do Plant Sizing Calculation
  No;                                     !- Run Simulation for Sizing Periods

OS:Sizing:Parameters,
  {40767933-21a1-4355-95d9-b485cea34125}, !- Handle
  1.25,                                   !- Heating Sizing Factor
  1.15;                                   !- Cooling Sizing Factor

OS:Timestep,
  {14cb42dc-01f0-4dc9-9191-8c6a87102b90}, !- Handle
  4;                                      !- Number of Timesteps per Hour

OS:ShadowCalculation,
  {f2dab41d-c55e-41a9-a8ce-f56de75d52b6}, !- Handle
  PolygonClipping,                        !- Shading Calculation Method
  ,                                       !- Shading Calculation Update Frequency Method
  20,                                     !- Shading Calculation Update Frequency
  200,                                    !- Maximum Figures in Shadow Overlap Calculations
  ,                                       !- Polygon Clipping Algorithm
  512,                                    !- Pixel Counting Resolution
  DetailedSkyDiffuseModeling,             !- Sky Diffuse Modeling Algorithm
  No,                                     !- Output External Shading Calculation Results
  No,                                     !- Disable Self-Shading Within Shading Zone Groups
  No;                                     !- Disable Self-Shading From Shading Zone Groups to Other Zones

OS:HeatBalanceAlgorithm,
  {35f44b39-5585-4af8-b795-0f312e34c3a7}, !- Handle
  ConductionTransferFunction,             !- Algorithm
  200;                                    !- Surface Temperature Upper Limit {C}

OS:RunPeriod,
  {537bb575-2e5a-4fb8-bc46-5056bfe36b33}, !- Handle
  Run Period 1,                           !- Name
  1,                                      !- Begin Month
  1,                                      !- Begin Day of Month
  12,                                     !- End Month
  31,                                     !- End Day of Month
  ,                                       !- Use Weather File Holidays and Special Days
  ,                                       !- Use Weather File Daylight Saving Period
  ,                                       !- Apply Weekend Holiday Rule
  ,                                       !- Use Weather File Rain Indicators
  ,                                       !- Use Weather File Snow Indicators
  ;                                       !- Number of Times Runperiod to be Repeated

OS:LifeCycleCost:Parameters,
  {f981da01-4b24-4ba2-8885-8146eb108ce7}, !- Handle
  ,                                       !- Analysis Type
  ,                                       !- Discounting Convention
  ,                                       !- Inflation Approach
  ,                                       !- Real Discount Rate
  ,                                       !- Nominal Discount Rate
  ,                                       !- Inflation
  ,                                       !- Base Date Month
  ,                                       !- Base Date Year
  ,                                       !- Service Date Month
  ,                                       !- Service Date Year
  ;                                       !- Length of Study Period in Years

OS:SurfaceConvectionAlgorithm:Outside,
  {ef9bd32c-4868-48ea-9e9d-75a721788635}, !- Handle
  DOE-2;                                  !- Algorithm

OS:SurfaceConvectionAlgorithm:Inside,
  {3f4510b4-e9c5-4389-89be-1d3701282b96}, !- Handle
  TARP;                                   !- Algorithm

OS:ZoneCapacitanceMultiplier:ResearchSpecial,
  {0f0a5df5-966f-46e7-9815-ce88ad47008c}, !- Handle
  ,                                       !- Temperature Capacity Multiplier
  15,                                     !- Humidity Capacity Multiplier
  ;                                       !- Carbon Dioxide Capacity Multiplier

OS:YearDescription,
  {811c93b6-bf68-4247-9304-8bb3e5ec575b}, !- Handle
  2018,                                   !- Calendar Year
  ,                                       !- Day of Week for Start Day
  ;                                       !- Is Leap Year

OS:AdditionalProperties,
  {1b545026-0dc9-4e2b-ae5f-2e79837ff9f0}, !- Handle
  {08b579df-447b-41d1-8a8e-b0063213b0fb}, !- Object Name
  Building ID,                            !- Feature Name 1
  Integer,                                !- Feature Data Type 1
  1,                                      !- Feature Value 1
  num_occupants,                          !- Feature Name 2
  Integer,                                !- Feature Data Type 2
  1,                                      !- Feature Value 2
  Schedules Path,                         !- Feature Name 3
  String,                                 !- Feature Data Type 3
  /var/simdata/openstudio/run/schedules.csv, !- Feature Value 3
  num_units,                              !- Feature Name 4
  Integer,                                !- Feature Data Type 4
  67,                                     !- Feature Value 4
  has_rear_units,                         !- Feature Name 5
  Boolean,                                !- Feature Data Type 5
  true,                                   !- Feature Value 5
  num_floors,                             !- Feature Name 6
  Integer,                                !- Feature Data Type 6
  4,                                      !- Feature Value 6
  horz_location,                          !- Feature Name 7
  String,                                 !- Feature Data Type 7
  Right,                                  !- Feature Value 7
  level,                                  !- Feature Name 8
  String,                                 !- Feature Data Type 8
  Bottom,                                 !- Feature Value 8
  found_type,                             !- Feature Name 9
  String,                                 !- Feature Data Type 9
  crawlspace,                             !- Feature Value 9
  corridor_width,                         !- Feature Name 10
  Double,                                 !- Feature Data Type 10
  3.048,                                  !- Feature Value 10
  corridor_position,                      !- Feature Name 11
  String,                                 !- Feature Data Type 11
  Double-Loaded Interior,                 !- Feature Value 11
  has_water_heater_flue,                  !- Feature Name 12
  Boolean,                                !- Feature Data Type 12
  true,                                   !- Feature Value 12
  has_hvac_flue,                          !- Feature Name 13
  Boolean,                                !- Feature Data Type 13
  false,                                  !- Feature Value 13
  has_fireplace_chimney,                  !- Feature Name 14
  Boolean,                                !- Feature Data Type 14
  false;                                  !- Feature Value 14

OS:WeatherFile,
  {1d794534-eb37-48a2-a086-d6069eea2d3c}, !- Handle
  Roanoke Regional Ap,                    !- City
  VA,                                     !- State Province Region
  USA,                                    !- Country
  TMY3,                                   !- Data Source
  724110,                                 !- WMO Number
  37.32,                                  !- Latitude {deg}
  -79.97,                                 !- Longitude {deg}
  -5,                                     !- Time Zone {hr}
  350,                                    !- Elevation {m}
  /weather/G5100230.epw,                  !- Url
  EAAA5CF0;                               !- Checksum

OS:AdditionalProperties,
  {471f571b-0d7b-4bdf-96e0-b304c02c1b33}, !- Handle
  {1d794534-eb37-48a2-a086-d6069eea2d3c}, !- Object Name
  EPWHeaderCity,                          !- Feature Name 1
  String,                                 !- Feature Data Type 1
  Roanoke Regional Ap,                    !- Feature Value 1
  EPWHeaderState,                         !- Feature Name 2
  String,                                 !- Feature Data Type 2
  VA,                                     !- Feature Value 2
  EPWHeaderCountry,                       !- Feature Name 3
  String,                                 !- Feature Data Type 3
  USA,                                    !- Feature Value 3
  EPWHeaderDataSource,                    !- Feature Name 4
  String,                                 !- Feature Data Type 4
  TMY3,                                   !- Feature Value 4
  EPWHeaderStation,                       !- Feature Name 5
  String,                                 !- Feature Data Type 5
  724110,                                 !- Feature Value 5
  EPWHeaderLatitude,                      !- Feature Name 6
  Double,                                 !- Feature Data Type 6
  37.32,                                  !- Feature Value 6
  EPWHeaderLongitude,                     !- Feature Name 7
  Double,                                 !- Feature Data Type 7
  -79.969999999999999,                    !- Feature Value 7
  EPWHeaderTimezone,                      !- Feature Name 8
  Double,                                 !- Feature Data Type 8
  -5,                                     !- Feature Value 8
  EPWHeaderAltitude,                      !- Feature Name 9
  Double,                                 !- Feature Data Type 9
  1148.2939632545931,                     !- Feature Value 9
  EPWHeaderLocalPressure,                 !- Feature Name 10
  Double,                                 !- Feature Data Type 10
  0.95862317386841744,                    !- Feature Value 10
  EPWHeaderRecordsPerHour,                !- Feature Name 11
  Double,                                 !- Feature Data Type 11
  1,                                      !- Feature Value 11
  EPWDataAnnualAvgDrybulb,                !- Feature Name 12
  Double,                                 !- Feature Data Type 12
  56.418684931506881,                     !- Feature Value 12
  EPWDataAnnualMinDrybulb,                !- Feature Name 13
  Double,                                 !- Feature Data Type 13
  12.02,                                  !- Feature Value 13
  EPWDataAnnualMaxDrybulb,                !- Feature Name 14
  Double,                                 !- Feature Data Type 14
  93.920000000000002,                     !- Feature Value 14
  EPWDataCDD50F,                          !- Feature Name 15
  Double,                                 !- Feature Data Type 15
  3878.6399999999981,                     !- Feature Value 15
  EPWDataCDD65F,                          !- Feature Name 16
  Double,                                 !- Feature Data Type 16
  1100.1599999999994,                     !- Feature Value 16
  EPWDataHDD50F,                          !- Feature Name 17
  Double,                                 !- Feature Data Type 17
  1535.8200000000002,                     !- Feature Value 17
  EPWDataHDD65F,                          !- Feature Name 18
  Double,                                 !- Feature Data Type 18
  4232.3400000000011,                     !- Feature Value 18
  EPWDataAnnualAvgWindspeed,              !- Feature Name 19
  Double,                                 !- Feature Data Type 19
  3.4097831050225937,                     !- Feature Value 19
  EPWDataMonthlyAvgDrybulbs,              !- Feature Name 20
  String,                                 !- Feature Data Type 20
  35.38225806451614&#4438.78589285714286&#4448.67056451612903&#4456.85025000000003&#4464.0097580645161&#4473.28325000000001&#4475.79298387096779&#4473.60975806451616&#4467.77975&#4456.50153225806453&#4449.649249999999995&#4435.70862903225806, !- Feature Value 20
  EPWDataGroundMonthlyTemps,              !- Feature Name 21
  String,                                 !- Feature Data Type 21
  49.16331684518542&#4446.07260591265219&#4445.82509069722613&#4447.29179095891675&#4453.17977519996947&#4459.040330712612956&#4464.12111912908762&#4467.3396736314798&#4467.61310751472132&#4464.99535439220546&#4460.04412906335682&#4454.36335152337898, !- Feature Value 21
  EPWDataWSF,                             !- Feature Name 22
  Double,                                 !- Feature Data Type 22
  0.46000000000000002,                    !- Feature Value 22
  EPWDataMonthlyAvgDailyHighDrybulbs,     !- Feature Name 23
  String,                                 !- Feature Data Type 23
  43.99032258064516&#4448.392857142857146&#4460.09161290322581&#4467.53800000000001&#4473.92838709677419&#4483.042&#4484.81548387096775&#4483.83419354838709&#4478.17600000000002&#4468.48774193548388&#4459.456&#4444.47806451612904, !- Feature Value 23
  EPWDataMonthlyAvgDailyLowDrybulbs,      !- Feature Name 24
  String,                                 !- Feature Data Type 24
  26.86709677419355&#4429.042857142857144&#4437.266451612903225&#4446.07&#4453.46064516129033&#4463.69200000000001&#4468.00580645161291&#4464.23741935483869&#4458.26200000000001&#4444.954193548387096&#4439.722&#4426.768387096774195, !- Feature Value 24
  EPWDesignHeatingDrybulb,                !- Feature Name 25
  Double,                                 !- Feature Data Type 25
  19.039999999999999,                     !- Feature Value 25
  EPWDesignHeatingWindspeed,              !- Feature Name 26
  Double,                                 !- Feature Data Type 26
  11.199999999999999,                     !- Feature Value 26
  EPWDesignCoolingDrybulb,                !- Feature Name 27
  Double,                                 !- Feature Data Type 27
  89.780000000000001,                     !- Feature Value 27
  EPWDesignCoolingWetbulb,                !- Feature Name 28
  Double,                                 !- Feature Data Type 28
  72.319999999999993,                     !- Feature Value 28
  EPWDesignCoolingHumidityRatio,          !- Feature Name 29
  Double,                                 !- Feature Data Type 29
  0.013610396620714831,                   !- Feature Value 29
  EPWDesignCoolingWindspeed,              !- Feature Name 30
  Double,                                 !- Feature Data Type 30
  4,                                      !- Feature Value 30
  EPWDesignDailyTemperatureRange,         !- Feature Name 31
  Double,                                 !- Feature Data Type 31
  19.079999999999998,                     !- Feature Value 31
  EPWDesignDehumidDrybulb,                !- Feature Name 32
  Double,                                 !- Feature Data Type 32
  77.719999999999999,                     !- Feature Value 32
  EPWDesignDehumidHumidityRatio,          !- Feature Name 33
  Double,                                 !- Feature Data Type 33
  0.016651186724770242,                   !- Feature Value 33
  EPWDesignCoolingDirectNormal,           !- Feature Name 34
  Double,                                 !- Feature Data Type 34
  894,                                    !- Feature Value 34
  EPWDesignCoolingDiffuseHorizontal,      !- Feature Name 35
  Double,                                 !- Feature Data Type 35
  133;                                    !- Feature Value 35

OS:ClimateZones,
  {1c8534f9-d319-429d-9ddc-eaa058538455}, !- Handle
  Building America,                       !- Climate Zone Institution Name 1
  ,                                       !- Climate Zone Document Name 1
  0,                                      !- Climate Zone Document Year 1
  Mixed-Humid;                            !- Climate Zone Value 1

OS:Site:WaterMainsTemperature,
  {b28d24d9-8237-43a4-bb5a-26329c2fc1f6}, !- Handle
  Correlation,                            !- Calculation Method
  ,                                       !- Temperature Schedule Name
  13.5659360730594,                       !- Annual Average Outdoor Air Temperature {C}
  22.4504032258065;                       !- Maximum Difference In Monthly Average Outdoor Air Temperatures {deltaC}

OS:RunPeriodControl:DaylightSavingTime,
  {eefdb708-0ad0-42b7-90ff-7d4e6ca8d89f}, !- Handle
  3/10,                                   !- Start Date
  11/3;                                   !- End Date

OS:Site:GroundTemperature:Deep,
  {8869d938-34be-4976-8fcb-88161c5a443a}, !- Handle
  13.5659360730594,                       !- January Deep Ground Temperature {C}
  13.5659360730594,                       !- February Deep Ground Temperature {C}
  13.5659360730594,                       !- March Deep Ground Temperature {C}
  13.5659360730594,                       !- April Deep Ground Temperature {C}
  13.5659360730594,                       !- May Deep Ground Temperature {C}
  13.5659360730594,                       !- June Deep Ground Temperature {C}
  13.5659360730594,                       !- July Deep Ground Temperature {C}
  13.5659360730594,                       !- August Deep Ground Temperature {C}
  13.5659360730594,                       !- September Deep Ground Temperature {C}
  13.5659360730594,                       !- October Deep Ground Temperature {C}
  13.5659360730594,                       !- November Deep Ground Temperature {C}
  13.5659360730594;                       !- December Deep Ground Temperature {C}

OS:ThermalZone,
  {79388d17-dc67-4bfc-8d78-e20c280b1094}, !- Handle
  living zone,                            !- Name
  ,                                       !- Multiplier
  ,                                       !- Ceiling Height {m}
  ,                                       !- Volume {m3}
  ,                                       !- Floor Area {m2}
  ,                                       !- Zone Inside Convection Algorithm
  ,                                       !- Zone Outside Convection Algorithm
  ,                                       !- Zone Conditioning Equipment List Name
  {858d8122-2d8d-4ed4-b91d-3acadc115300}, !- Zone Air Inlet Port List
  {0c63b9d8-d1a1-489b-bb77-38ffb570636e}, !- Zone Air Exhaust Port List
  {65b7340c-4804-4025-b840-fda2a750b41f}, !- Zone Air Node Name
  {bb835639-4829-4cf0-a6c2-871ff3166e13}, !- Zone Return Air Port List
  ,                                       !- Primary Daylighting Control Name
  ,                                       !- Fraction of Zone Controlled by Primary Daylighting Control
  ,                                       !- Secondary Daylighting Control Name
  ,                                       !- Fraction of Zone Controlled by Secondary Daylighting Control
  ,                                       !- Illuminance Map Name
  ,                                       !- Group Rendering Name
  {a3d3d9ea-46b4-4311-ac96-23177b3a6699}, !- Thermostat Name
  No;                                     !- Use Ideal Air Loads

OS:Node,
  {45d96675-a930-464a-8a09-4b69f2ac71fd}, !- Handle
  Node 1,                                 !- Name
  {65b7340c-4804-4025-b840-fda2a750b41f}, !- Inlet Port
  ;                                       !- Outlet Port

OS:Connection,
  {65b7340c-4804-4025-b840-fda2a750b41f}, !- Handle
  {79388d17-dc67-4bfc-8d78-e20c280b1094}, !- Source Object
  11,                                     !- Outlet Port
  {45d96675-a930-464a-8a09-4b69f2ac71fd}, !- Target Object
  2;                                      !- Inlet Port

OS:PortList,
  {858d8122-2d8d-4ed4-b91d-3acadc115300}, !- Handle
  {79388d17-dc67-4bfc-8d78-e20c280b1094}, !- HVAC Component
  {6902bb8a-cc7d-4661-8b39-9041fdfc6b6a}, !- Port 1
  {ed1f403d-fb94-42bc-beac-596371c89e64}; !- Port 2

OS:PortList,
  {0c63b9d8-d1a1-489b-bb77-38ffb570636e}, !- Handle
  {79388d17-dc67-4bfc-8d78-e20c280b1094}; !- HVAC Component

OS:PortList,
  {bb835639-4829-4cf0-a6c2-871ff3166e13}, !- Handle
  {79388d17-dc67-4bfc-8d78-e20c280b1094}, !- HVAC Component
  {619b1c88-0ced-41da-b478-62bd3b5db5f9}, !- Port 1
  {487a7a38-2e43-42fd-bf8a-cb15a1624237}; !- Port 2

OS:Sizing:Zone,
  {5cf115c5-137b-42e2-81ad-a375661f5b44}, !- Handle
  {79388d17-dc67-4bfc-8d78-e20c280b1094}, !- Zone or ZoneList Name
  SupplyAirTemperature,                   !- Zone Cooling Design Supply Air Temperature Input Method
  14,                                     !- Zone Cooling Design Supply Air Temperature {C}
  11.11,                                  !- Zone Cooling Design Supply Air Temperature Difference {deltaC}
  SupplyAirTemperature,                   !- Zone Heating Design Supply Air Temperature Input Method
  40,                                     !- Zone Heating Design Supply Air Temperature {C}
  11.11,                                  !- Zone Heating Design Supply Air Temperature Difference {deltaC}
  0.0085,                                 !- Zone Cooling Design Supply Air Humidity Ratio {kg-H2O/kg-air}
  0.008,                                  !- Zone Heating Design Supply Air Humidity Ratio {kg-H2O/kg-air}
  ,                                       !- Zone Heating Sizing Factor
  ,                                       !- Zone Cooling Sizing Factor
  DesignDay,                              !- Cooling Design Air Flow Method
  ,                                       !- Cooling Design Air Flow Rate {m3/s}
  ,                                       !- Cooling Minimum Air Flow per Zone Floor Area {m3/s-m2}
  ,                                       !- Cooling Minimum Air Flow {m3/s}
  ,                                       !- Cooling Minimum Air Flow Fraction
  DesignDay,                              !- Heating Design Air Flow Method
  ,                                       !- Heating Design Air Flow Rate {m3/s}
  ,                                       !- Heating Maximum Air Flow per Zone Floor Area {m3/s-m2}
  ,                                       !- Heating Maximum Air Flow {m3/s}
  ,                                       !- Heating Maximum Air Flow Fraction
  No,                                     !- Account for Dedicated Outdoor Air System
  NeutralSupplyAir,                       !- Dedicated Outdoor Air System Control Strategy
  autosize,                               !- Dedicated Outdoor Air Low Setpoint Temperature for Design {C}
  autosize;                               !- Dedicated Outdoor Air High Setpoint Temperature for Design {C}

OS:ZoneHVAC:EquipmentList,
  {a5b4072c-c057-4951-a3fa-29911cc7f4a1}, !- Handle
  Zone HVAC Equipment List 1,             !- Name
  {79388d17-dc67-4bfc-8d78-e20c280b1094}, !- Thermal Zone
  SequentialLoad,                         !- Load Distribution Scheme
  {dbb2ef7d-e34b-41a5-b76c-6d9537cbaa9f}, !- Zone Equipment 1
  1,                                      !- Zone Equipment Cooling Sequence 1
  1,                                      !- Zone Equipment Heating or No-Load Sequence 1
  ,                                       !- Zone Equipment Sequential Cooling Fraction Schedule Name 1
  ,                                       !- Zone Equipment Sequential Heating Fraction Schedule Name 1
  {59be42d5-26ee-4467-8587-b76eb581eafa}, !- Zone Equipment 2
  2,                                      !- Zone Equipment Cooling Sequence 2
  2,                                      !- Zone Equipment Heating or No-Load Sequence 2
  ,                                       !- Zone Equipment Sequential Cooling Fraction Schedule Name 2
  ;                                       !- Zone Equipment Sequential Heating Fraction Schedule Name 2

OS:Space,
  {7c49ca1d-073e-4247-9643-569906e6de28}, !- Handle
  living space,                           !- Name
  {8a47c158-4207-443f-9771-f3989db003f9}, !- Space Type Name
  ,                                       !- Default Construction Set Name
  ,                                       !- Default Schedule Set Name
  ,                                       !- Direction of Relative North {deg}
  ,                                       !- X Origin {m}
  ,                                       !- Y Origin {m}
  ,                                       !- Z Origin {m}
  ,                                       !- Building Story Name
  {79388d17-dc67-4bfc-8d78-e20c280b1094}, !- Thermal Zone Name
  ,                                       !- Part of Total Floor Area
  ,                                       !- Design Specification Outdoor Air Object Name
  {e40907c9-3c4c-4db9-8822-8f96d2a9c5c9}; !- Building Unit Name

OS:Surface,
  {7aed9d63-0973-437d-ba50-1a26fdcae5a8}, !- Handle
  Surface 1,                              !- Name
  Floor,                                  !- Surface Type
  {9a294cb1-ea48-4344-9f3b-f8f33cdaa104}, !- Construction Name
  {7c49ca1d-073e-4247-9643-569906e6de28}, !- Space Name
  Surface,                                !- Outside Boundary Condition
  {a83aa92b-5893-4ee4-8ec4-7651c1c9cb4b}, !- Outside Boundary Condition Object
  NoSun,                                  !- Sun Exposure
  NoWind,                                 !- Wind Exposure
  ,                                       !- View Factor to Ground
  ,                                       !- Number of Vertices
  0, -16.4744329509698, 0,                !- X,Y,Z Vertex 1 {m}
  0, 0, 0,                                !- X,Y,Z Vertex 2 {m}
  9.15246275053879, 0, 0,                 !- X,Y,Z Vertex 3 {m}
  9.15246275053879, -16.4744329509698, 0; !- X,Y,Z Vertex 4 {m}

OS:Surface,
  {02907eb3-86fc-4141-bb98-1bd23ee875d0}, !- Handle
  Surface 2,                              !- Name
  Wall,                                   !- Surface Type
  {f26234a6-3654-4841-9fb6-035bfb3b4ad7}, !- Construction Name
  {7c49ca1d-073e-4247-9643-569906e6de28}, !- Space Name
  Adiabatic,                              !- Outside Boundary Condition
  ,                                       !- Outside Boundary Condition Object
  NoSun,                                  !- Sun Exposure
  NoWind,                                 !- Wind Exposure
  ,                                       !- View Factor to Ground
  ,                                       !- Number of Vertices
  0, 0, 2.4384,                           !- X,Y,Z Vertex 1 {m}
  0, 0, 0,                                !- X,Y,Z Vertex 2 {m}
  0, -16.4744329509698, 0,                !- X,Y,Z Vertex 3 {m}
  0, -16.4744329509698, 2.4384;           !- X,Y,Z Vertex 4 {m}

OS:Surface,
  {be376e08-cb75-45d1-af40-a227f5660d66}, !- Handle
  Surface 3,                              !- Name
  Wall,                                   !- Surface Type
  {f26234a6-3654-4841-9fb6-035bfb3b4ad7}, !- Construction Name
  {7c49ca1d-073e-4247-9643-569906e6de28}, !- Space Name
  Adiabatic,                              !- Outside Boundary Condition
  ,                                       !- Outside Boundary Condition Object
  NoSun,                                  !- Sun Exposure
  NoWind,                                 !- Wind Exposure
  ,                                       !- View Factor to Ground
  ,                                       !- Number of Vertices
  9.15246275053879, 0, 2.4384,            !- X,Y,Z Vertex 1 {m}
  9.15246275053879, 0, 0,                 !- X,Y,Z Vertex 2 {m}
  0, 0, 0,                                !- X,Y,Z Vertex 3 {m}
  0, 0, 2.4384;                           !- X,Y,Z Vertex 4 {m}

OS:Surface,
  {f760fadb-8795-4df9-9d28-c28814365014}, !- Handle
  Surface 4,                              !- Name
  Wall,                                   !- Surface Type
  {4f8188f1-e278-43c9-93da-c2ea99d8d1f9}, !- Construction Name
  {7c49ca1d-073e-4247-9643-569906e6de28}, !- Space Name
  Outdoors,                               !- Outside Boundary Condition
  ,                                       !- Outside Boundary Condition Object
  SunExposed,                             !- Sun Exposure
  WindExposed,                            !- Wind Exposure
  ,                                       !- View Factor to Ground
  ,                                       !- Number of Vertices
  9.15246275053879, -16.4744329509698, 2.4384, !- X,Y,Z Vertex 1 {m}
  9.15246275053879, -16.4744329509698, 0, !- X,Y,Z Vertex 2 {m}
  9.15246275053879, 0, 0,                 !- X,Y,Z Vertex 3 {m}
  9.15246275053879, 0, 2.4384;            !- X,Y,Z Vertex 4 {m}

OS:Surface,
  {47ce9515-60d8-46bc-b641-9fe5bc272168}, !- Handle
  Surface 5,                              !- Name
  Wall,                                   !- Surface Type
  {4f8188f1-e278-43c9-93da-c2ea99d8d1f9}, !- Construction Name
  {7c49ca1d-073e-4247-9643-569906e6de28}, !- Space Name